@<TRIPOS>MOLECULE
*****
 1288 1524 0 0 0
SMALL
GASTEIGER
Energy = 0

@<TRIPOS>ATOM
      1 C           7.6856   -3.8969   -5.2512 C.3     0  UNK         0.1701
      2 C           6.6005   -4.4466   -6.0121 C.3     0  UNK        -0.2451
      3 C           5.5613   -5.1394   -5.2976 C.3     0  UNK         0.1701
      4 C           4.6571   -6.0474   -5.9118 C.3     0  UNK        -0.3160
      5 C           4.3004   -7.2374   -5.2496 C.3     0  UNK         0.1701
      6 C           4.1095   -8.4479   -5.9478 C.3     0  UNK        -0.3160
      7 C           4.5302   -9.6645   -5.3390 C.3     0  UNK         0.1701
      8 C           4.5197   -9.6845   -3.9190 C.3     0  UNK         0.0000
      9 C           5.0131  -10.7951   -3.2048 C.3     0  UNK         0.0000
     10 C           5.7592  -11.7630   -3.9133 C.3     0  UNK         0.0000
     11 C           6.6752  -12.5437   -3.1582 C.3     0  UNK         0.0000
     12 C           6.6462  -12.5346   -1.7470 C.3     0  UNK         0.0000
     13 C           7.7474  -13.0076   -1.0065 C.3     0  UNK         0.0000
     14 C           8.9658  -13.2066   -1.6957 C.3     0  UNK         0.0000
     15 C           9.0073  -13.2487   -3.1060 C.3     0  UNK         0.0000
     16 C          10.2285  -13.1118   -3.8226 C.3     0  UNK         0.0000
     17 C          10.2410  -13.1297   -5.2452 C.3     0  UNK         0.1701
     18 C          11.3455  -12.5624   -5.9712 C.3     0  UNK        -0.2451
     19 C           9.0100  -13.4645   -5.8767 C.3     0  UNK        -0.3160
     20 C           7.8004  -13.1843   -5.2116 C.3     0  UNK         0.1701
     21 C           7.7089  -12.9637    0.4067 C.3     0  UNK         0.0000
     22 C          10.1533  -13.0532   -0.9609 C.3     0  UNK         0.0000
     23 C          11.2984  -12.6259   -1.6678 C.3     0  UNK         0.0000
     24 C           6.5859  -12.4997    1.1124 C.3     0  UNK         0.0000
     25 C           5.6698  -11.7568    0.3592 C.3     0  UNK         0.0000
     26 C           4.9502  -10.7851    1.0676 C.3     0  UNK         0.0000
     27 C           4.4781   -9.6853    0.3495 C.3     0  UNK         0.0000
     28 C           4.2676   -8.5089    1.0879 C.3     0  UNK         0.0000
     29 C           4.1310   -8.5136    2.5007 C.3     0  UNK         0.0000
     30 C           4.1449   -7.2631    3.1825 C.3     0  UNK         0.0000
     31 C           4.7854   -6.1956    2.5065 C.3     0  UNK         0.0000
     32 C           5.3589   -5.1125    3.2174 C.3     0  UNK         0.0000
     33 C           4.1681   -9.7737    3.1555 C.3     0  UNK         0.0000
     34 C           4.8410  -10.8213    2.4711 C.3     0  UNK         0.0000
     35 C           5.6913  -11.7697   -1.0541 C.3     0  UNK         0.0000
     36 C           6.6607  -12.7472   -5.9127 C.3     0  UNK        -0.3160
     37 C           7.8017  -13.0808   -3.8174 C.3     0  UNK         0.0000
     38 C          11.3347  -12.6342   -3.0883 C.3     0  UNK         0.0000
     39 C           4.4899   -9.6931   -1.0645 C.3     0  UNK         0.0000
     40 C           4.2880   -8.4972   -1.7698 C.3     0  UNK         0.0000
     41 C           4.9783  -10.8025   -1.7870 C.3     0  UNK         0.0000
     42 C           4.4093   -7.2944   -1.0433 C.3     0  UNK         0.0000
     43 C           4.8352   -6.1481   -1.7426 C.3     0  UNK         0.0000
     44 C           5.5521   -5.1850   -1.0133 C.3     0  UNK         0.0000
     45 C           5.5535   -5.2213    0.3995 C.3     0  UNK         0.0000
     46 C           4.8573   -6.2115    1.1007 C.3     0  UNK         0.0000
     47 C           4.4149   -7.3157    0.3689 C.3     0  UNK         0.0000
     48 C          12.3161  -11.8949   -3.7887 C.3     0  UNK         0.0000
     49 C          13.0271  -10.9205   -3.0337 C.3     0  UNK         0.0000
     50 C          13.4990   -9.7745   -3.7125 C.3     0  UNK         0.0000
     51 C          12.3618  -11.8857   -5.2133 C.3     0  UNK         0.1701
     52 C          13.2894  -10.9760   -5.7906 C.3     0  UNK        -0.3160
     53 C          13.6231   -9.7919   -5.1065 C.3     0  UNK         0.1701
     54 C           5.5691   -5.1437   -3.8756 C.3     0  UNK         0.0000
     55 C           4.8371   -6.1254   -3.1537 C.3     0  UNK         0.0000
     56 C           6.4248   -4.4485    2.5657 C.3     0  UNK         0.0000
     57 C           7.5274   -3.8917    3.2546 C.3     0  UNK         0.0000
     58 C           8.7724   -3.9182    2.5768 C.3     0  UNK         0.0000
     59 C           9.9985   -3.9013    3.2846 C.3     0  UNK         0.0000
     60 C          11.1122   -4.4791    2.6274 C.3     0  UNK         0.0000
     61 C          12.1575   -5.1402    3.3116 C.3     0  UNK         0.0000
     62 C          12.7540   -6.2308    2.6244 C.3     0  UNK         0.0000
     63 C          12.7193   -6.2750    1.2187 C.3     0  UNK         0.0000
     64 C          13.2249   -7.3701    0.5097 C.3     0  UNK         0.0000
     65 C          13.4041   -8.5495    1.2448 C.3     0  UNK         0.0000
     66 C          13.3751   -7.2853    3.3346 C.3     0  UNK         0.0000
     67 C          13.4488   -8.5377    2.6650 C.3     0  UNK         0.0000
     68 C          12.0282   -5.3053    0.4918 C.3     0  UNK         0.0000
     69 C          11.0850   -4.5604    1.2110 C.3     0  UNK         0.0000
     70 C           9.9941   -4.0864    0.4705 C.3     0  UNK         0.0000
     71 C          13.3937   -9.7850    3.3363 C.3     0  UNK         0.0000
     72 C          12.8152  -10.8632    2.6268 C.3     0  UNK         0.0000
     73 C          12.2075  -11.9404    3.3173 C.3     0  UNK         0.0000
     74 C           6.4857   -4.5000    1.1501 C.3     0  UNK         0.0000
     75 C           7.6035   -4.0401    0.4395 C.3     0  UNK         0.0000
     76 C           8.7917   -3.9481    1.1722 C.3     0  UNK         0.0000
     77 C          13.5616   -8.5468   -3.0223 C.3     0  UNK         0.0000
     78 C          13.3484   -7.3520   -3.7625 C.3     0  UNK         0.0000
     79 C          12.8294   -6.2487   -3.0538 C.3     0  UNK         0.0000
     80 C          12.1157   -5.2713   -3.7807 C.3     0  UNK         0.0000
     81 C          12.1406   -5.2407   -5.2027 C.3     0  UNK         0.1701
     82 C          11.1674   -4.5009   -3.0530 C.3     0  UNK         0.0000
     83 C          10.0698   -3.9546   -3.7471 C.3     0  UNK         0.0000
     84 C          10.1241   -3.8460   -5.1396 C.3     0  UNK         0.1701
     85 C          13.5147   -8.5539   -1.6120 C.3     0  UNK         0.0000
     86 C          13.2747   -7.3635   -0.9041 C.3     0  UNK         0.0000
     87 C          12.8043   -6.2550   -1.6360 C.3     0  UNK         0.0000
     88 C          13.3747   -9.7621   -0.8978 C.3     0  UNK         0.0000
     89 C          12.9760  -10.9063   -1.6210 C.3     0  UNK         0.0000
     90 C          12.2298  -11.8752   -0.9236 C.3     0  UNK         0.0000
     91 C          12.1650  -11.8455    0.4899 C.3     0  UNK         0.0000
     92 C          12.8228  -10.8519    1.2206 C.3     0  UNK         0.0000
     93 C          13.3052   -9.7444    0.5149 C.3     0  UNK         0.0000
     94 C          11.1979  -12.5696    1.2038 C.3     0  UNK         0.0000
     95 C          10.1025  -13.0071    0.4505 C.3     0  UNK         0.0000
     96 C           8.8865  -13.0956    1.1460 C.3     0  UNK         0.0000
     97 C           8.8349  -13.1289    2.5538 C.3     0  UNK         0.0000
     98 C          10.0515  -13.1611    3.2759 C.3     0  UNK         0.0000
     99 C          11.1881  -12.6267    2.6199 C.3     0  UNK         0.0000
    100 C           7.5804  -13.1321    3.2245 C.3     0  UNK         0.0000
    101 C           6.4877  -12.5695    2.5257 C.3     0  UNK         0.0000
    102 C           5.4044  -11.9141    3.1715 C.3     0  UNK         0.0000
    103 C           7.6148   -3.9852   -0.9723 C.3     0  UNK         0.0000
    104 C           8.8283   -3.8189   -1.6657 C.3     0  UNK         0.0000
    105 C           6.5030   -4.4250   -1.7186 C.3     0  UNK         0.0000
    106 C           6.5202   -4.4074   -3.1375 C.3     0  UNK         0.0000
    107 C           7.6486   -3.9230   -3.8299 C.3     0  UNK         0.0000
    108 C           8.8428   -3.7845   -3.0741 C.3     0  UNK         0.0000
    109 C          10.0169   -4.0372   -0.9388 C.3     0  UNK         0.0000
    110 C          11.1395   -4.5207   -1.6429 C.3     0  UNK         0.0000
    111 C          12.0634   -5.2926   -0.9219 C.3     0  UNK         0.0000
    112 C          13.3925   -7.3590   -5.1824 C.3     0  UNK         0.1701
    113 C          12.8383   -6.2634   -5.9336 C.3     0  UNK        -0.2451
    114 C          13.8225   -8.5717   -5.7881 C.3     0  UNK        -0.3160
    115 C           8.9382   -3.5688   -5.8448 C.3     0  UNK        -0.3160
    116 C           4.7708   -4.7578    4.4496 C.3     0  UNK         0.0000
    117 C           4.9948   -3.4635    5.0130 C.3     0  UNK         0.0000
    118 C           3.8297   -2.8119    5.5166 C.3     0  UNK         0.0000
    119 C           2.6129   -3.5308    5.6762 C.3     0  UNK         0.0000
    120 C           2.5809   -4.9396    5.4717 C.3     0  UNK         0.0000
    121 C           3.6713   -5.5778    4.8472 C.3     0  UNK         0.0000
    122 C           7.4865   -3.2254    4.4927 C.3     0  UNK         0.0000
    123 C           6.2427   -2.7529    5.0065 C.3     0  UNK         0.0000
    124 C          10.0015   -3.2273    4.5192 C.3     0  UNK         0.0000
    125 C           8.7401   -2.6750    4.9001 C.3     0  UNK         0.0000
    126 C          11.2291   -2.7551    5.0675 C.3     0  UNK         0.0000
    127 C          12.7018   -4.7717    4.5604 C.3     0  UNK         0.0000
    128 C          12.4723   -3.4707    5.1042 C.3     0  UNK         0.0000
    129 C          13.9285   -6.9532    4.5887 C.3     0  UNK         0.0000
    130 C          13.7835   -5.5880    4.9981 C.3     0  UNK         0.0000
    131 C          14.8702   -4.9455    5.6194 C.3     0  UNK         0.0000
    132 C          16.0640   -5.6855    5.7737 C.3     0  UNK         0.0000
    133 C          16.0658   -7.0986    5.6144 C.3     0  UNK         0.0000
    134 C          14.9202   -7.7972    5.1560 C.3     0  UNK         0.0000
    135 C           3.5382  -10.0969    4.3749 C.3     0  UNK         0.0000
    136 C           2.5393   -9.2402    4.9328 C.3     0  UNK         0.0000
    137 C           1.3977   -9.9379    5.4177 C.3     0  UNK         0.0000
    138 C           1.3963  -11.3496    5.5892 C.3     0  UNK         0.0000
    139 C           2.5884  -12.0883    5.4229 C.3     0  UNK         0.0000
    140 C           3.6776  -11.4595    4.7902 C.3     0  UNK         0.0000
    141 C           4.7848  -12.2709    4.3907 C.3     0  UNK         0.0000
    142 C           5.0083  -13.5494    4.9781 C.3     0  UNK         0.0000
    143 C           7.5128  -13.7800    4.4739 C.3     0  UNK         0.0000
    144 C          10.0233  -13.7872    4.5347 C.3     0  UNK         0.0000
    145 C           8.7557  -14.3181    4.9184 C.3     0  UNK         0.0000
    146 C           8.7381  -15.6114    5.4575 C.3     0  UNK         0.0000
    147 C           9.9633  -16.2935    5.5944 C.3     0  UNK         0.0000
    148 C          11.2357  -14.2476    5.1181 C.3     0  UNK         0.0000
    149 C          12.7148  -12.2607    4.5927 C.3     0  UNK         0.0000
    150 C          12.4775  -13.5423    5.1587 C.3     0  UNK         0.0000
    151 C          13.9338  -10.0852    4.6025 C.3     0  UNK         0.0000
    152 C          14.9217   -9.2311    5.1579 C.3     0  UNK         0.0000
    153 C          16.0724   -9.9297    5.6050 C.3     0  UNK         0.0000
    154 C          16.0738  -11.3383    5.7722 C.3     0  UNK         0.0000
    155 C          14.8767  -12.0738    5.6495 C.3     0  UNK         0.0000
    156 C          13.7889  -11.4389    5.0280 C.3     0  UNK         0.0000
    157 C           3.5329   -6.9381    4.4131 C.3     0  UNK         0.0000
    158 C           2.5340   -7.7963    4.9539 C.3     0  UNK         0.0000
    159 C           1.3939   -7.0957    5.4474 C.3     0  UNK         0.0000
    160 C           1.3877   -5.6802    5.6273 C.3     0  UNK         0.0000
    161 C           6.2701   -1.3896    5.4080 C.3     0  UNK         0.0000
    162 C           5.0584   -0.6839    5.5859 C.3     0  UNK         0.0000
    163 C          13.6276   -2.8169    5.6223 C.3     0  UNK         0.0000
    164 C          13.6164   -1.4066    5.8023 C.3     0  UNK         0.0000
    165 C          14.8298   -0.6939    5.9754 C.3     0  UNK         0.0000
    166 C          16.0527   -1.4110    6.0555 C.3     0  UNK         0.0000
    167 C          16.0544   -2.8352    6.0108 C.3     0  UNK         0.0000
    168 C          14.8407   -3.5369    5.7949 C.3     0  UNK         0.0000
    169 C           1.4005   -2.8289    5.9119 C.3     0  UNK         0.0000
    170 C           1.4017   -1.4055    5.9604 C.3     0  UNK         0.0000
    171 C           0.1727   -0.6923    6.0083 C.3     0  UNK         0.0000
    172 C           3.8421   -1.4006    5.6929 C.3     0  UNK         0.0000
    173 C           2.6261   -0.6887    5.8594 C.3     0  UNK         0.0000
    174 C          13.6278  -14.1858    5.6937 C.3     0  UNK         0.0000
    175 C          14.8444  -13.4731    5.8497 C.3     0  UNK         0.0000
    176 C          16.0563  -14.1727    6.0684 C.3     0  UNK         0.0000
    177 C          16.0495  -15.5892    6.1347 C.3     0  UNK         0.0000
    178 C          14.8236  -16.2968    6.0633 C.3     0  UNK         0.0000
    179 C           0.1871  -12.0522    5.8123 C.3     0  UNK         0.0000
    180 C           0.1847  -13.4649    5.9537 C.3     0  UNK         0.0000
    181 C           2.6229  -13.4846    5.6525 C.3     0  UNK         0.0000
    182 C           1.4122  -14.1764    5.9255 C.3     0  UNK         0.0000
    183 C           1.4106  -15.5908    6.0128 C.3     0  UNK         0.0000
    184 C           0.1812  -16.2994    6.0921 C.3     0  UNK         0.0000
    185 C           2.6379  -16.2959    5.9200 C.3     0  UNK         0.0000
    186 C           3.8541  -15.5875    5.7287 C.3     0  UNK         0.0000
    187 C           3.8449  -14.1899    5.5044 C.3     0  UNK         0.0000
    188 C           6.2641  -14.2414    4.9950 C.3     0  UNK         0.0000
    189 C          13.6101  -15.5879    5.8912 C.3     0  UNK         0.0000
    190 C           5.7958  -11.7793   -5.3358 C.3     0  UNK         0.1701
    191 C           5.1390  -10.7356   -6.0778 C.3     0  UNK        -0.2451
    192 C           5.2189  -10.5827   -7.6738 C.3     0  UNK         0.6321
    193 C           6.7716   -4.5095   -7.6019 C.3     0  UNK         0.6321
    194 C          11.2913   -4.2698   -5.8013 C.3     0  UNK        -0.3160
    195 C           5.8621   -9.3081   -8.0303 C.1     0  UNK         0.2567
    196 C           3.8495  -10.5636   -8.1963 C.1     0  UNK         0.2567
    197 C           5.9340  -11.6324   -8.4145 C.1     0  UNK         0.2567
    198 C           7.9037   -5.4000   -7.9089 C.1     0  UNK         0.2567
    199 C           7.0838   -3.1700   -8.1136 C.1     0  UNK         0.2567
    200 C           5.5978   -4.9578   -8.3655 C.1     0  UNK         0.2567
    201 C          12.8553   -6.3705   -7.5336 C.3     0  UNK         0.6321
    202 C          14.2527   -6.3986   -7.9732 C.1     0  UNK         0.2567
    203 C          12.2088   -5.2845   -8.2882 C.1     0  UNK         0.2567
    204 C          12.2125   -7.6206   -7.9669 C.1     0  UNK         0.2567
    205 C          11.1929  -12.4248   -7.5610 C.3     0  UNK         0.6321
    206 C          10.0938  -11.4796   -7.8164 C.1     0  UNK         0.2567
    207 C          10.8417  -13.7207   -8.1513 C.1     0  UNK         0.2567
    208 C          12.3836  -11.9804   -8.2991 C.1     0  UNK         0.2567
    209 C           4.3867   -7.2638   -3.8557 C.3     0  UNK         0.0000
    210 C           4.2897   -8.4953   -3.1784 C.3     0  UNK         0.0000
    211 C           8.7321   -1.3604    5.3874 C.3     0  UNK         0.0000
    212 C           9.9674   -0.6809    5.4964 C.3     0  UNK         0.0000
    213 C           7.4962   -0.6774    5.4597 C.3     0  UNK         0.0000
    214 C          12.4022   -0.6898    5.6860 C.3     0  UNK         0.0000
    215 C          11.1939   -1.3931    5.4748 C.3     0  UNK         0.0000
    216 C          12.3934  -16.2947    5.7807 C.3     0  UNK         0.0000
    217 C          11.1913  -15.5930    5.5599 C.3     0  UNK         0.0000
    218 C           7.5037  -16.2896    5.5424 C.3     0  UNK         0.0000
    219 C           6.2831  -15.5852    5.4513 C.3     0  UNK         0.0000
    220 C           5.0732  -16.2906    5.6466 C.3     0  UNK         0.0000
    221 C           0.1851   -9.2215    5.5445 C.3     0  UNK         0.0000
    222 C           0.1802   -7.8103    5.5565 C.3     0  UNK         0.0000
    223 C           0.1752   -4.9702    5.8201 C.3     0  UNK         0.0000
    224 C           0.1732   -3.5497    5.9293 C.3     0  UNK         0.0000
    225 N           4.6776   -5.2762   -8.9573 N.1     0  UNK        -0.4424
    226 N           7.3340   -2.1129   -8.4596 N.1     0  UNK        -0.4424
    227 N          15.3535   -6.4126   -8.2724 N.1     0  UNK        -0.4424
    228 N          11.7274   -4.4434   -8.8877 N.1     0  UNK        -0.4424
    229 N           8.8282   -6.0547   -8.0547 N.1     0  UNK        -0.4424
    230 N           2.7674  -10.5567   -8.5590 N.1     0  UNK        -0.4424
    231 N           6.4762  -12.4394   -9.0092 N.1     0  UNK        -0.4424
    232 N          10.5619  -14.7427   -8.5721 N.1     0  UNK        -0.4424
    233 N          13.3114  -11.6729   -8.8842 N.1     0  UNK        -0.4424
    234 N           9.1958  -10.7797   -7.9070 N.1     0  UNK        -0.4424
    235 N           6.3183   -8.2838   -8.2490 N.1     0  UNK        -0.4424
    236 N          11.7540   -8.6286   -8.2467 N.1     0  UNK        -0.4424
    237 H           4.2125   -5.8388   -6.8587 H       0  UNK         0.1459
    238 H           3.7181   -8.4295   -6.9429 H       0  UNK         0.1459
    239 H           8.9795  -13.8684   -6.8672 H       0  UNK         0.1459
    240 H           6.4574  -13.1760   -6.8686 H       0  UNK         0.1459
    241 H          13.7533  -11.1757   -6.7316 H       0  UNK         0.1459
    242 H          14.2464   -8.5878   -6.7705 H       0  UNK         0.1459
    243 H           9.0087   -3.1819   -6.8412 H       0  UNK         0.1459
    244 H          11.5266   -3.8360   -6.7490 H       0  UNK         0.1459
    245 C          -9.6015   -3.9589   -5.2584 C.3     0  UNK         0.1701
    246 C         -10.6894   -4.5114   -6.0133 C.3     0  UNK        -0.2451
    247 C         -11.7233   -5.2046   -5.2897 C.3     0  UNK         0.1701
    248 C         -12.6331   -6.1149   -5.8933 C.3     0  UNK        -0.3160
    249 C         -12.9852   -7.3021   -5.2243 C.3     0  UNK         0.1701
    250 C         -13.1753   -8.5156   -5.9185 C.3     0  UNK        -0.3160
    251 C         -12.7522   -9.7302   -5.3080 C.3     0  UNK         0.1701
    252 C         -12.7548   -9.7445   -3.8864 C.3     0  UNK         0.0000
    253 C         -12.2562  -10.8521   -3.1699 C.3     0  UNK         0.0000
    254 C         -11.5150  -11.8243   -3.8795 C.3     0  UNK         0.0000
    255 C         -10.5938  -12.6020   -3.1246 C.3     0  UNK         0.0000
    256 C         -10.6082  -12.5834   -1.7116 C.3     0  UNK         0.0000
    257 C          -9.4997  -13.0521   -0.9755 C.3     0  UNK         0.0000
    258 C          -8.2874  -13.2577   -1.6717 C.3     0  UNK         0.0000
    259 C          -8.2615  -13.3075   -3.0831 C.3     0  UNK         0.0000
    260 C          -7.0462  -13.1713   -3.8088 C.3     0  UNK         0.0000
    261 C          -7.0451  -13.1950   -5.2319 C.3     0  UNK         0.1701
    262 C          -5.9446  -12.6294   -5.9649 C.3     0  UNK        -0.2451
    263 C          -8.2802  -13.5332   -5.8559 C.3     0  UNK        -0.3160
    264 C          -9.4847  -13.2496   -5.1847 C.3     0  UNK         0.1701
    265 C          -9.5189  -13.0003    0.4383 C.3     0  UNK         0.0000
    266 C          -7.0929  -13.1007   -0.9459 C.3     0  UNK         0.0000
    267 C          -5.9558  -12.6748   -1.6638 C.3     0  UNK         0.0000
    268 C         -10.6322  -12.5265    1.1500 C.3     0  UNK         0.0000
    269 C         -11.5600  -11.7894    0.3999 C.3     0  UNK         0.0000
    270 C         -12.2744  -10.8153    1.1093 C.3     0  UNK         0.0000
    271 C         -12.7620   -9.7223    0.3885 C.3     0  UNK         0.0000
    272 C         -12.9653   -8.5408    1.1243 C.3     0  UNK         0.0000
    273 C         -13.0746   -8.5348    2.5400 C.3     0  UNK         0.0000
    274 C         -13.0377   -7.2828    3.2200 C.3     0  UNK         0.0000
    275 C         -12.4102   -6.2199    2.5305 C.3     0  UNK         0.0000
    276 C         -11.8199   -5.1361    3.2326 C.3     0  UNK         0.0000
    277 C         -13.0160   -9.7894    3.2029 C.3     0  UNK         0.0000
    278 C         -12.3571  -10.8424    2.5151 C.3     0  UNK         0.0000
    279 C         -11.5570  -11.8126   -1.0152 C.3     0  UNK         0.0000
    280 C         -10.6246  -12.8084   -5.8849 C.3     0  UNK        -0.3160
    281 C          -9.4724  -13.1427   -3.7895 C.3     0  UNK         0.0000
    282 C          -5.9345  -12.6898   -3.0839 C.3     0  UNK         0.0000
    283 C         -12.7655   -9.7394   -1.0273 C.3     0  UNK         0.0000
    284 C         -12.9744   -8.5460   -1.7367 C.3     0  UNK         0.0000
    285 C         -12.2804  -10.8523   -1.7502 C.3     0  UNK         0.0000
    286 C         -12.8455   -7.3382   -1.0151 C.3     0  UNK         0.0000
    287 C         -12.4209   -6.1963   -1.7227 C.3     0  UNK         0.0000
    288 C         -11.6927   -5.2330   -1.0009 C.3     0  UNK         0.0000
    289 C         -11.6716   -5.2614    0.4136 C.3     0  UNK         0.0000
    290 C         -12.3648   -6.2456    1.1238 C.3     0  UNK         0.0000
    291 C         -12.8252   -7.3506    0.3989 C.3     0  UNK         0.0000
    292 C          -4.9590  -11.9530   -3.7930 C.3     0  UNK         0.0000
    293 C          -4.2432  -10.9742   -3.0487 C.3     0  UNK         0.0000
    294 C          -3.7766   -9.8308   -3.7332 C.3     0  UNK         0.0000
    295 C          -4.9237  -11.9500   -5.2164 C.3     0  UNK         0.1701
    296 C          -4.0009  -11.0418   -5.8032 C.3     0  UNK        -0.3160
    297 C          -3.6597   -9.8548   -5.1268 C.3     0  UNK         0.1701
    298 C         -11.7043   -5.2037   -3.8667 C.3     0  UNK         0.0000
    299 C         -12.4322   -6.1806   -3.1353 C.3     0  UNK         0.0000
    300 C         -10.7651   -4.4732    2.5698 C.3     0  UNK         0.0000
    301 C          -9.6558   -3.9087    3.2482 C.3     0  UNK         0.0000
    302 C          -8.4197   -3.9406    2.5618 C.3     0  UNK         0.0000
    303 C          -7.1837   -3.9165    3.2594 C.3     0  UNK         0.0000
    304 C          -6.0785   -4.4987    2.5979 C.3     0  UNK         0.0000
    305 C          -5.0184   -5.1503    3.2757 C.3     0  UNK         0.0000
    306 C          -4.4390   -6.2497    2.5905 C.3     0  UNK         0.0000
    307 C          -4.4993   -6.3026    1.1860 C.3     0  UNK         0.0000
    308 C          -4.0054   -7.4023    0.4769 C.3     0  UNK         0.0000
    309 C          -3.8197   -8.5786    1.2142 C.3     0  UNK         0.0000
    310 C          -3.7998   -7.2980    3.2950 C.3     0  UNK         0.0000
    311 C          -3.7485   -8.5565    2.6325 C.3     0  UNK         0.0000
    312 C          -5.1985   -5.3368    0.4603 C.3     0  UNK         0.0000
    313 C          -6.1316   -4.5874    1.1825 C.3     0  UNK         0.0000
    314 C          -7.2313   -4.1219    0.4471 C.3     0  UNK         0.0000
    315 C          -3.7854   -9.8031    3.3043 C.3     0  UNK         0.0000
    316 C          -4.3817  -10.8844    2.6097 C.3     0  UNK         0.0000
    317 C          -4.9727  -11.9622    3.3103 C.3     0  UNK         0.0000
    318 C         -10.7292   -4.5376    1.1541 C.3     0  UNK         0.0000
    319 C          -9.6212   -4.0795    0.4328 C.3     0  UNK         0.0000
    320 C          -8.4255   -3.9814    1.1568 C.3     0  UNK         0.0000
    321 C          -3.7069   -8.5998   -3.0494 C.3     0  UNK         0.0000
    322 C          -3.9241   -7.4083   -3.7906 C.3     0  UNK         0.0000
    323 C          -4.4366   -6.3020   -3.0836 C.3     0  UNK         0.0000
    324 C          -5.1585   -5.3301   -3.8083 C.3     0  UNK         0.0000
    325 C          -5.1454   -5.3032   -5.2295 C.3     0  UNK         0.1701
    326 C          -6.1008   -4.5578   -3.0786 C.3     0  UNK         0.0000
    327 C          -7.2034   -4.0147   -3.7673 C.3     0  UNK         0.0000
    328 C          -7.1623   -3.9073   -5.1598 C.3     0  UNK         0.1701
    329 C          -3.7417   -8.5988   -1.6406 C.3     0  UNK         0.0000
    330 C          -3.9713   -7.4046   -0.9361 C.3     0  UNK         0.0000
    331 C          -4.4475   -6.2996   -1.6673 C.3     0  UNK         0.0000
    332 C          -3.8763   -9.8039   -0.9224 C.3     0  UNK         0.0000
    333 C          -4.2798  -10.9526   -1.6372 C.3     0  UNK         0.0000
    334 C          -5.0172  -11.9203   -0.9301 C.3     0  UNK         0.0000
    335 C          -5.0637  -11.8821    0.4836 C.3     0  UNK         0.0000
    336 C          -4.4006  -10.8827    1.2041 C.3     0  UNK         0.0000
    337 C          -3.9301   -9.7775    0.4902 C.3     0  UNK         0.0000
    338 C          -6.0195  -12.6062    1.2087 C.3     0  UNK         0.0000
    339 C          -7.1236  -13.0484    0.4656 C.3     0  UNK         0.0000
    340 C          -8.3327  -13.1328    1.1697 C.3     0  UNK         0.0000
    341 C          -8.3586  -13.1590    2.5786 C.3     0  UNK         0.0000
    342 C          -7.1319  -13.1865    3.2914 C.3     0  UNK         0.0000
    343 C          -6.0041  -12.6524    2.6256 C.3     0  UNK         0.0000
    344 C          -9.6042  -13.1535    3.2596 C.3     0  UNK         0.0000
    345 C         -10.7041  -12.5897    2.5658 C.3     0  UNK         0.0000
    346 C         -11.7744  -11.9257    3.2189 C.3     0  UNK         0.0000
    347 C          -9.6306   -4.0315   -0.9792 C.3     0  UNK         0.0000
    348 C          -8.4240   -3.8685   -1.6813 C.3     0  UNK         0.0000
    349 C         -10.7495   -4.4748   -1.7168 C.3     0  UNK         0.0000
    350 C         -10.7481   -4.4636   -3.1367 C.3     0  UNK         0.0000
    351 C          -9.6260   -3.9810   -3.8376 C.3     0  UNK         0.0000
    352 C          -8.4254   -3.8415   -3.0895 C.3     0  UNK         0.0000
    353 C          -7.2286   -4.0809   -0.9619 C.3     0  UNK         0.0000
    354 C          -6.1138   -4.5684   -1.6704 C.3     0  UNK         0.0000
    355 C          -5.1815   -5.3330   -0.9531 C.3     0  UNK         0.0000
    356 C          -3.8891   -7.4210   -5.2089 C.3     0  UNK         0.1701
    357 C          -4.4506   -6.3285   -5.9586 C.3     0  UNK        -0.2451
    358 C          -3.4619   -8.6363   -5.8125 C.3     0  UNK        -0.3160
    359 C          -8.3540   -3.6310   -5.8581 C.3     0  UNK        -0.3160
    360 C         -12.3764   -4.7689    4.4743 C.3     0  UNK         0.0000
    361 C         -12.1455   -3.4703    5.0300 C.3     0  UNK         0.0000
    362 C         -13.2987   -2.8167    5.5542 C.3     0  UNK         0.0000
    363 C         -14.5085   -3.5372    5.7305 C.3     0  UNK         0.0000
    364 C         -14.5398   -4.9461    5.5360 C.3     0  UNK         0.0000
    365 C         -13.4627   -5.5884    4.8960 C.3     0  UNK         0.0000
    366 C          -9.6688   -3.2285    4.4803 C.3     0  UNK         0.0000
    367 C         -10.9024   -2.7556    5.0092 C.3     0  UNK         0.0000
    368 C          -7.1522   -3.2322    4.4884 C.3     0  UNK         0.0000
    369 C          -8.4093   -2.6773    4.8767 C.3     0  UNK         0.0000
    370 C          -5.9123   -2.7593    5.0224 C.3     0  UNK         0.0000
    371 C          -4.4369   -4.7717    4.5071 C.3     0  UNK         0.0000
    372 C          -4.6613   -3.4688    5.0490 C.3     0  UNK         0.0000
    373 C          -3.2032   -6.9549    4.5272 C.3     0  UNK         0.0000
    374 C          -3.3408   -5.5843    4.9294 C.3     0  UNK         0.0000
    375 C          -2.2435   -4.9405    5.5367 C.3     0  UNK         0.0000
    376 C          -1.0431   -5.6800    5.6794 C.3     0  UNK         0.0000
    377 C          -1.0409   -7.0965    5.5169 C.3     0  UNK         0.0000
    378 C          -2.1957   -7.7985    5.0747 C.3     0  UNK         0.0000
    379 C         -13.6029  -10.1010    4.4455 C.3     0  UNK         0.0000
    380 C         -14.5853   -9.2419    5.0221 C.3     0  UNK         0.0000
    381 C         -15.7175   -9.9359    5.5244 C.3     0  UNK         0.0000
    382 C         -15.7192  -11.3450    5.6929 C.3     0  UNK         0.0000
    383 C         -14.5337  -12.0864    5.5154 C.3     0  UNK         0.0000
    384 C         -13.4551  -11.4590    4.8685 C.3     0  UNK         0.0000
    385 C         -12.3608  -12.2750    4.4541 C.3     0  UNK         0.0000
    386 C         -12.1318  -13.5520    5.0452 C.3     0  UNK         0.0000
    387 C          -9.6438  -13.7937    4.5149 C.3     0  UNK         0.0000
    388 C          -7.1315  -13.7989    4.5570 C.3     0  UNK         0.0000
    389 C          -8.3944  -14.3270    4.9550 C.3     0  UNK         0.0000
    390 C          -8.3981  -15.6134    5.5096 C.3     0  UNK         0.0000
    391 C          -7.1687  -16.2937    5.6366 C.3     0  UNK         0.0000
    392 C          -5.9056  -14.2513    5.1293 C.3     0  UNK         0.0000
    393 C          -4.4278  -12.2742    4.5735 C.3     0  UNK         0.0000
    394 C          -4.6573  -13.5510    5.1500 C.3     0  UNK         0.0000
    395 C          -3.2008  -10.0974    4.5521 C.3     0  UNK         0.0000
    396 C          -2.1952   -9.2374    5.0788 C.3     0  UNK         0.0000
    397 C          -1.0333   -9.9352    5.5076 C.3     0  UNK         0.0000
    398 C          -1.0303  -11.3461    5.6820 C.3     0  UNK         0.0000
    399 C          -2.2340  -12.0822    5.5833 C.3     0  UNK         0.0000
    400 C          -3.3377  -11.4524    4.9816 C.3     0  UNK         0.0000
    401 C         -13.6079   -6.9496    4.4679 C.3     0  UNK         0.0000
    402 C         -14.5904   -7.8021    5.0365 C.3     0  UNK         0.0000
    403 C         -15.7195   -7.1004    5.5453 C.3     0  UNK         0.0000
    404 C         -15.7258   -5.6864    5.7150 C.3     0  UNK         0.0000
    405 C         -10.8649   -1.3951    5.4221 C.3     0  UNK         0.0000
    406 C         -12.0709   -0.6895    5.6246 C.3     0  UNK         0.0000
    407 C          -3.4957   -2.8157    5.5541 C.3     0  UNK         0.0000
    408 C          -3.5056   -1.4053    5.7387 C.3     0  UNK         0.0000
    409 C          -2.2860   -0.6937    5.9086 C.3     0  UNK         0.0000
    410 C          -1.0564   -1.4072    5.9833 C.3     0  UNK         0.0000
    411 C          -1.0546   -2.8313    5.9312 C.3     0  UNK         0.0000
    412 C          -2.2747   -3.5310    5.7164 C.3     0  UNK         0.0000
    413 C         -15.7139   -2.8337    5.9784 C.3     0  UNK         0.0000
    414 C         -15.7128   -1.4105    6.0260 C.3     0  UNK         0.0000
    415 C         -16.9358   -0.6945    6.0783 C.3     0  UNK         0.0000
    416 C         -13.2835   -1.4068    5.7392 C.3     0  UNK         0.0000
    417 C         -14.4939   -0.6928    5.9203 C.3     0  UNK         0.0000
    418 C          -3.4919  -14.1899    5.6646 C.3     0  UNK         0.0000
    419 C          -2.2663  -13.4801    5.7945 C.3     0  UNK         0.0000
    420 C          -1.0454  -14.1756    5.9997 C.3     0  UNK         0.0000
    421 C          -1.0504  -15.5923    6.0742 C.3     0  UNK         0.0000
    422 C          -2.2833  -16.2966    6.0232 C.3     0  UNK         0.0000
    423 C         -16.9259  -12.0467    5.9099 C.3     0  UNK         0.0000
    424 C         -16.9301  -13.4593    6.0406 C.3     0  UNK         0.0000
    425 C         -14.5026  -13.4821    5.7400 C.3     0  UNK         0.0000
    426 C         -15.7091  -14.1747    6.0136 C.3     0  UNK         0.0000
    427 C         -15.7124  -15.5886    6.0989 C.3     0  UNK         0.0000
    428 C         -16.9373  -16.2992    6.1677 C.3     0  UNK         0.0000
    429 C         -14.4889  -16.2959    6.0144 C.3     0  UNK         0.0000
    430 C         -13.2762  -15.5868    5.8196 C.3     0  UNK         0.0000
    431 C         -13.2865  -14.1910    5.5857 C.3     0  UNK         0.0000
    432 C         -10.8814  -14.2500    5.0553 C.3     0  UNK         0.0000
    433 C          -3.5053  -15.5913    5.8688 C.3     0  UNK         0.0000
    434 C         -11.4881  -11.8429   -5.3039 C.3     0  UNK         0.1701
    435 C         -12.1490  -10.8031   -6.0496 C.3     0  UNK        -0.2451
    436 C         -12.0746  -10.6570   -7.6506 C.3     0  UNK         0.6321
    437 C         -10.5230   -4.5777   -7.6035 C.3     0  UNK         0.6321
    438 C          -5.9979   -4.3311   -5.8236 C.3     0  UNK        -0.3160
    439 C         -11.4346   -9.3847   -8.0176 C.1     0  UNK         0.2567
    440 C         -13.4421  -10.6389   -8.1776 C.1     0  UNK         0.2567
    441 C         -11.3631  -11.7070   -8.3944 C.1     0  UNK         0.2567
    442 C          -9.3896   -5.4665   -7.9125 C.1     0  UNK         0.2567
    443 C         -10.2143   -3.2389   -8.1191 C.1     0  UNK         0.2567
    444 C         -11.6981   -5.0297   -8.3617 C.1     0  UNK         0.2567
    445 C          -4.4402   -6.4416   -7.5555 C.3     0  UNK         0.6321
    446 C          -3.0413   -6.4699   -7.9901 C.1     0  UNK         0.2567
    447 C          -5.0897   -5.3555   -8.3076 C.1     0  UNK         0.2567
    448 C          -5.0859   -7.6943   -7.9781 C.1     0  UNK         0.2567
    449 C          -6.1021  -12.4948   -7.5550 C.3     0  UNK         0.6321
    450 C          -7.2018  -11.5497   -7.8089 C.1     0  UNK         0.2567
    451 C          -6.4562  -13.7909   -8.1432 C.1     0  UNK         0.2567
    452 C          -4.9133  -12.0522   -8.2988 C.1     0  UNK         0.2567
    453 C         -12.8896   -7.3218   -3.8304 C.3     0  UNK         0.0000
    454 C         -12.9818   -8.5510   -3.1473 C.3     0  UNK         0.0000
    455 C          -8.4051   -1.3653    5.3709 C.3     0  UNK         0.0000
    456 C          -7.1672   -0.6859    5.4738 C.3     0  UNK         0.0000
    457 C          -9.6387   -0.6838    5.4660 C.3     0  UNK         0.0000
    458 C          -4.7259   -0.6929    5.6366 C.3     0  UNK         0.0000
    459 C          -5.9395   -1.3969    5.4335 C.3     0  UNK         0.0000
    460 C          -4.7291  -16.2947    5.7826 C.3     0  UNK         0.0000
    461 C          -5.9389  -15.5950    5.5791 C.3     0  UNK         0.0000
    462 C          -9.6312  -16.2901    5.6155 C.3     0  UNK         0.0000
    463 C         -10.8534  -15.5883    5.5271 C.3     0  UNK         0.0000
    464 C         -12.0596  -16.2911    5.7408 C.3     0  UNK         0.0000
    465 C         -16.9248   -9.2188    5.6548 C.3     0  UNK         0.0000
    466 C         -16.9288   -7.8118    5.6646 C.3     0  UNK         0.0000
    467 C         -16.9332   -4.9758    5.9110 C.3     0  UNK         0.0000
    468 C         -16.9348   -3.5560    6.0096 C.3     0  UNK         0.0000
    469 N         -12.6165   -5.3478   -8.9562 N.1     0  UNK        -0.4424
    470 N          -9.9651   -2.1818   -8.4662 N.1     0  UNK        -0.4424
    471 N          -1.9360   -6.4819   -8.2724 N.1     0  UNK        -0.4424
    472 N          -5.5767   -4.5135   -8.9013 N.1     0  UNK        -0.4424
    473 N          -8.4651   -6.1213   -8.0586 N.1     0  UNK        -0.4424
    474 N         -14.5187  -10.6308   -8.5559 N.1     0  UNK        -0.4424
    475 N         -10.8288  -12.5125   -8.9982 N.1     0  UNK        -0.4424
    476 N          -6.7372  -14.8120   -8.5650 N.1     0  UNK        -0.4424
    477 N          -3.9844  -11.7444   -8.8822 N.1     0  UNK        -0.4424
    478 N          -8.1016  -10.8521   -7.8980 N.1     0  UNK        -0.4424
    479 N         -10.9844   -8.3621   -8.2553 N.1     0  UNK        -0.4424
    480 N          -5.5513   -8.7043   -8.2390 N.1     0  UNK        -0.4424
    481 H         -13.0837   -5.9120   -6.8383 H       0  UNK         0.1459
    482 H         -13.5663   -8.5020   -6.9140 H       0  UNK         0.1459
    483 H          -8.3216  -13.9413   -6.8448 H       0  UNK         0.1459
    484 H         -10.8247  -13.2250   -6.8472 H       0  UNK         0.1459
    485 H          -3.5437  -11.2461   -6.7466 H       0  UNK         0.1459
    486 H          -3.0425   -8.6565   -6.7971 H       0  UNK         0.1459
    487 H          -8.2972   -3.2490   -6.8569 H       0  UNK         0.1459
    488 H          -5.7612   -3.8853   -6.7647 H       0  UNK         0.1459
    489 C          -9.6392   13.2957   -5.4002 C.3     0  UNK         0.1701
    490 C         -10.7265   12.7485   -6.1599 C.3     0  UNK        -0.2451
    491 C         -11.7557   12.0492   -5.4361 C.3     0  UNK         0.1701
    492 C         -12.6642   11.1468   -6.0508 C.3     0  UNK        -0.3160
    493 C         -13.0239    9.9550   -5.3897 C.3     0  UNK         0.1701
    494 C         -13.2142    8.7491   -6.0958 C.3     0  UNK        -0.3160
    495 C         -12.7916    7.5259   -5.4992 C.3     0  UNK         0.1701
    496 C         -12.7880    7.4921   -4.0773 C.3     0  UNK         0.0000
    497 C         -12.2874    6.3749   -3.3735 C.3     0  UNK         0.0000
    498 C         -11.5492    5.4141   -4.0941 C.3     0  UNK         0.0000
    499 C         -10.6245    4.6271   -3.3531 C.3     0  UNK         0.0000
    500 C         -10.6319    4.6199   -1.9423 C.3     0  UNK         0.0000
    501 C          -9.5242    4.1359   -1.2156 C.3     0  UNK         0.0000
    502 C          -8.3155    3.9401   -1.9159 C.3     0  UNK         0.0000
    503 C          -8.2927    3.9153   -3.3258 C.3     0  UNK         0.0000
    504 C          -7.0790    4.0607   -4.0488 C.3     0  UNK         0.0000
    505 C          -7.0812    4.0590   -5.4698 C.3     0  UNK         0.1701
    506 C          -5.9815    4.6330   -6.1964 C.3     0  UNK        -0.2451
    507 C          -8.3194    3.7284   -6.0917 C.3     0  UNK        -0.3160
    508 C          -9.5230    4.0062   -5.4178 C.3     0  UNK         0.1701
    509 C          -9.5383    4.1551    0.1989 C.3     0  UNK         0.0000
    510 C          -7.1223    4.0830   -1.1896 C.3     0  UNK         0.0000
    511 C          -5.9894    4.5220   -1.9022 C.3     0  UNK         0.0000
    512 C         -10.6483    4.6113    0.9208 C.3     0  UNK         0.0000
    513 C         -11.5722    5.3673    0.1812 C.3     0  UNK         0.0000
    514 C         -12.2844    6.3274    0.9035 C.3     0  UNK         0.0000
    515 C         -12.7719    7.4348    0.1963 C.3     0  UNK         0.0000
    516 C         -12.9709    8.6040    0.9439 C.3     0  UNK         0.0000
    517 C         -13.0728    8.5694    2.3585 C.3     0  UNK         0.0000
    518 C         -13.0299    9.8086    3.0497 C.3     0  UNK         0.0000
    519 C         -12.4105   10.8928    2.3768 C.3     0  UNK         0.0000
    520 C         -11.8194   11.9603    3.0985 C.3     0  UNK         0.0000
    521 C         -13.0171    7.2998    3.0065 C.3     0  UNK         0.0000
    522 C         -12.3616    6.2589    2.3078 C.3     0  UNK         0.0000
    523 C         -11.5766    5.3777   -1.2340 C.3     0  UNK         0.0000
    524 C         -10.6665    4.4537   -6.1075 C.3     0  UNK        -0.3160
    525 C          -9.5055    4.0954   -4.0236 C.3     0  UNK         0.0000
    526 C          -5.9679    4.5296   -3.3206 C.3     0  UNK         0.0000
    527 C         -12.7837    7.4504   -1.2184 C.3     0  UNK         0.0000
    528 C         -12.9972    8.6549   -1.9138 C.3     0  UNK         0.0000
    529 C         -12.3019    6.3502   -1.9546 C.3     0  UNK         0.0000
    530 C         -12.8651    9.8523   -1.1798 C.3     0  UNK         0.0000
    531 C         -12.4481   11.0094   -1.8753 C.3     0  UNK         0.0000
    532 C         -11.7194   11.9675   -1.1439 C.3     0  UNK         0.0000
    533 C         -11.6900   11.9105    0.2718 C.3     0  UNK         0.0000
    534 C         -12.3734   10.9060    0.9698 C.3     0  UNK         0.0000
    535 C         -12.8362    9.8106    0.2340 C.3     0  UNK         0.0000
    536 C          -4.9979    5.2804   -4.0216 C.3     0  UNK         0.0000
    537 C          -4.2866    6.2496   -3.2676 C.3     0  UNK         0.0000
    538 C          -3.8213    7.4029   -3.9389 C.3     0  UNK         0.0000
    539 C          -4.9588    5.3052   -5.4441 C.3     0  UNK         0.1701
    540 C          -4.0314    6.2194   -6.0171 C.3     0  UNK        -0.3160
    541 C          -3.6960    7.4002   -5.3310 C.3     0  UNK         0.1701
    542 C         -11.7382   12.0343   -4.0124 C.3     0  UNK         0.0000
    543 C         -12.4652   11.0459   -3.2890 C.3     0  UNK         0.0000
    544 C         -10.7752   12.6545    2.4421 C.3     0  UNK         0.0000
    545 C          -9.6667   13.2094    3.1313 C.3     0  UNK         0.0000
    546 C          -8.4344   13.2158    2.4351 C.3     0  UNK         0.0000
    547 C          -7.1966   13.2063    3.1352 C.3     0  UNK         0.0000
    548 C          -6.0964   12.6360    2.4570 C.3     0  UNK         0.0000
    549 C          -5.0421   11.9536    3.1227 C.3     0  UNK         0.0000
    550 C          -4.4760   10.8640    2.4177 C.3     0  UNK         0.0000
    551 C          -4.5442   10.8477    1.0132 C.3     0  UNK         0.0000
    552 C          -4.0571    9.7568    0.2924 C.3     0  UNK         0.0000
    553 C          -3.8743    8.5664    1.0158 C.3     0  UNK         0.0000
    554 C          -3.8414    9.7947    3.1041 C.3     0  UNK         0.0000
    555 C          -3.7962    8.5486    2.4326 C.3     0  UNK         0.0000
    556 C          -5.2329   11.8355    0.3016 C.3     0  UNK         0.0000
    557 C          -6.1574   12.5822    1.0375 C.3     0  UNK         0.0000
    558 C          -7.2551   13.0744    0.3107 C.3     0  UNK         0.0000
    559 C          -3.8167    7.2878    3.0913 C.3     0  UNK         0.0000
    560 C          -4.4143    6.2196    2.3880 C.3     0  UNK         0.0000
    561 C          -4.9885    5.1172    3.0723 C.3     0  UNK         0.0000
    562 C         -10.7457   12.6254    1.0219 C.3     0  UNK         0.0000
    563 C          -9.6461   13.1119    0.3021 C.3     0  UNK         0.0000
    564 C          -8.4477   13.2079    1.0261 C.3     0  UNK         0.0000
    565 C          -3.7557    8.6244   -3.2437 C.3     0  UNK         0.0000
    566 C          -3.9677    9.8283   -3.9720 C.3     0  UNK         0.0000
    567 C          -4.4810   10.9273   -3.2553 C.3     0  UNK         0.0000
    568 C          -5.2005   11.9115   -3.9709 C.3     0  UNK         0.0000
    569 C          -5.1892   11.9499   -5.3928 C.3     0  UNK         0.1701
    570 C          -6.1363   12.6834   -3.2295 C.3     0  UNK         0.0000
    571 C          -7.2395   13.2371   -3.9129 C.3     0  UNK         0.0000
    572 C          -7.2027   13.3483   -5.3068 C.3     0  UNK         0.1701
    573 C          -3.7950    8.6012   -1.8360 C.3     0  UNK         0.0000
    574 C          -4.0227    9.7859   -1.1203 C.3     0  UNK         0.0000
    575 C          -4.4911   10.9070   -1.8387 C.3     0  UNK         0.0000
    576 C          -3.9276    7.3854   -1.1311 C.3     0  UNK         0.0000
    577 C          -4.3253    6.2474   -1.8574 C.3     0  UNK         0.0000
    578 C          -5.0552    5.2670   -1.1610 C.3     0  UNK         0.0000
    579 C          -5.1001    5.2754    0.2519 C.3     0  UNK         0.0000
    580 C          -4.4397    6.2623    0.9834 C.3     0  UNK         0.0000
    581 C          -3.9809    7.3816    0.2800 C.3     0  UNK         0.0000
    582 C          -6.0468    4.5322    0.9696 C.3     0  UNK         0.0000
    583 C          -7.1507    4.1051    0.2221 C.3     0  UNK         0.0000
    584 C          -8.3546    4.0017    0.9293 C.3     0  UNK         0.0000
    585 C          -8.3755    3.9298    2.3365 C.3     0  UNK         0.0000
    586 C          -7.1449    3.8800    3.0443 C.3     0  UNK         0.0000
    587 C          -6.0259    4.4451    2.3845 C.3     0  UNK         0.0000
    588 C          -9.6216    3.9055    3.0160 C.3     0  UNK         0.0000
    589 C         -10.7170    4.5020    2.3340 C.3     0  UNK         0.0000
    590 C         -11.7881    5.1521    2.9943 C.3     0  UNK         0.0000
    591 C          -9.6608   13.1833   -1.1113 C.3     0  UNK         0.0000
    592 C          -8.4547   13.3624   -1.8156 C.3     0  UNK         0.0000
    593 C         -10.7809   12.7432   -1.8539 C.3     0  UNK         0.0000
    594 C         -10.7822   12.7709   -3.2761 C.3     0  UNK         0.0000
    595 C          -9.6616   13.2657   -3.9769 C.3     0  UNK         0.0000
    596 C          -8.4595   13.4065   -3.2267 C.3     0  UNK         0.0000
    597 C          -7.2569   13.1380   -1.0991 C.3     0  UNK         0.0000
    598 C          -6.1453   12.6539   -1.8186 C.3     0  UNK         0.0000
    599 C          -5.2180   11.8686   -1.1119 C.3     0  UNK         0.0000
    600 C          -3.9284    9.8339   -5.3899 C.3     0  UNK         0.1701
    601 C          -4.4924   10.9313   -6.1315 C.3     0  UNK        -0.2451
    602 C          -3.4974    8.6264   -6.0048 C.3     0  UNK        -0.3160
    603 C          -8.3946   13.6276   -6.0029 C.3     0  UNK        -0.3160
    604 C         -12.3729   12.2721    4.3566 C.3     0  UNK         0.0000
    605 C         -12.1408   13.5360    4.9724 C.3     0  UNK         0.0000
    606 C         -13.2936   14.1596    5.5311 C.3     0  UNK         0.0000
    607 C         -14.5094   13.4449    5.6684 C.3     0  UNK         0.0000
    608 C         -14.5416   12.0545    5.4146 C.3     0  UNK         0.0000
    609 C         -13.4582   11.4417    4.7604 C.3     0  UNK         0.0000
    610 C          -9.6707   13.8120    4.4047 C.3     0  UNK         0.0000
    611 C         -10.8971   14.2429    4.9825 C.3     0  UNK         0.0000
    612 C          -7.1589   13.8122    4.4053 C.3     0  UNK         0.0000
    613 C          -8.4125   14.3338    4.8368 C.3     0  UNK         0.0000
    614 C          -5.9220   14.2439    4.9811 C.3     0  UNK         0.0000
    615 C          -4.4503   12.2769    4.3650 C.3     0  UNK         0.0000
    616 C          -4.6701   13.5439    4.9718 C.3     0  UNK         0.0000
    617 C          -3.2245   10.0948    4.3340 C.3     0  UNK         0.0000
    618 C          -3.3542   11.4514    4.7636 C.3     0  UNK         0.0000
    619 C          -2.2489   12.0625    5.3860 C.3     0  UNK         0.0000
    620 C          -1.0451   11.3246    5.4929 C.3     0  UNK         0.0000
    621 C          -1.0444    9.9204    5.2888 C.3     0  UNK         0.0000
    622 C          -2.2102    9.2359    4.8535 C.3     0  UNK         0.0000
    623 C         -13.6059    6.9474    4.2371 C.3     0  UNK         0.0000
    624 C         -14.5893    7.7933    4.8175 C.3     0  UNK         0.0000
    625 C         -15.7267    7.0943    5.2962 C.3     0  UNK         0.0000
    626 C         -15.7276    5.6859    5.4589 C.3     0  UNK         0.0000
    627 C         -14.5418    4.9458    5.2849 C.3     0  UNK         0.0000
    628 C         -13.4643    5.5795    4.6417 C.3     0  UNK         0.0000
    629 C         -12.3739    4.7631    4.2202 C.3     0  UNK         0.0000
    630 C         -12.1424    3.4737    4.8035 C.3     0  UNK         0.0000
    631 C          -9.6556    3.2170    4.2499 C.3     0  UNK         0.0000
    632 C          -7.1340    3.2146    4.2865 C.3     0  UNK         0.0000
    633 C          -8.3998    2.6755    4.6786 C.3     0  UNK         0.0000
    634 C          -8.4006    1.3983    5.2611 C.3     0  UNK         0.0000
    635 C          -7.1668    0.7238    5.4224 C.3     0  UNK         0.0000
    636 C          -5.9039    2.7635    4.8644 C.3     0  UNK         0.0000
    637 C          -4.4288    4.7631    4.3202 C.3     0  UNK         0.0000
    638 C          -4.6555    3.4740    4.8894 C.3     0  UNK         0.0000
    639 C          -3.2140    6.9517    4.3206 C.3     0  UNK         0.0000
    640 C          -2.2043    7.7994    4.8459 C.3     0  UNK         0.0000
    641 C          -1.0377    7.0976    5.2550 C.3     0  UNK         0.0000
    642 C          -1.0347    5.6876    5.4281 C.3     0  UNK         0.0000
    643 C          -2.2377    4.9514    5.3311 C.3     0  UNK         0.0000
    644 C          -3.3412    5.5863    4.7320 C.3     0  UNK         0.0000
    645 C         -13.6013   10.0964    4.3044 C.3     0  UNK         0.0000
    646 C         -14.5887    9.2295    4.8483 C.3     0  UNK         0.0000
    647 C         -15.7283    9.9148    5.3497 C.3     0  UNK         0.0000
    648 C         -15.7330   11.3164    5.5576 C.3     0  UNK         0.0000
    649 C         -10.8590   15.5678    5.4893 C.3     0  UNK         0.0000
    650 C         -12.0637   16.2604    5.7269 C.3     0  UNK         0.0000
    651 C          -3.5041   14.1633    5.5157 C.3     0  UNK         0.0000
    652 C          -3.5105   15.5525    5.7851 C.3     0  UNK         0.0000
    653 C          -2.2875   16.2500    5.9847 C.3     0  UNK         0.0000
    654 C          -1.0547   15.5441    6.0118 C.3     0  UNK         0.0000
    655 C          -1.0550   14.1335    5.8790 C.3     0  UNK         0.0000
    656 C          -2.2783   13.4522    5.6336 C.3     0  UNK         0.0000
    657 C         -15.7173   14.1320    5.9427 C.3     0  UNK         0.0000
    658 C         -15.7156   15.5422    6.0640 C.3     0  UNK         0.0000
    659 C         -16.9413   16.2489    6.1412 C.3     0  UNK         0.0000
    660 C         -13.2793   15.5504    5.7917 C.3     0  UNK         0.0000
    661 C         -14.4920   16.2526    5.9991 C.3     0  UNK         0.0000
    662 C          -3.4940    2.8387    5.4282 C.3     0  UNK         0.0000
    663 C          -2.2697    3.5524    5.5559 C.3     0  UNK         0.0000
    664 C          -1.0500    2.8599    5.7874 C.3     0  UNK         0.0000
    665 C          -1.0548    1.4434    5.9151 C.3     0  UNK         0.0000
    666 C          -2.2859    0.7334    5.8778 C.3     0  UNK         0.0000
    667 C         -16.9341    4.9852    5.6668 C.3     0  UNK         0.0000
    668 C         -16.9331    3.5741    5.8187 C.3     0  UNK         0.0000
    669 C         -14.5070    3.5492    5.5211 C.3     0  UNK         0.0000
    670 C         -15.7117    2.8589    5.8124 C.3     0  UNK         0.0000
    671 C         -15.7125    1.4440    5.9444 C.3     0  UNK         0.0000
    672 C         -16.9343    0.7297    6.0424 C.3     0  UNK         0.0000
    673 C         -14.4906    0.7315    5.8748 C.3     0  UNK         0.0000
    674 C         -13.2821    1.4418    5.6390 C.3     0  UNK         0.0000
    675 C         -13.2920    2.8367    5.3683 C.3     0  UNK         0.0000
    676 C         -10.8929    2.7644    4.8046 C.3     0  UNK         0.0000
    677 C          -3.5047    1.4391    5.6766 C.3     0  UNK         0.0000
    678 C         -11.5282    5.4138   -5.5173 C.3     0  UNK         0.1701
    679 C         -12.1918    6.4589   -6.2517 C.3     0  UNK        -0.2451
    680 C         -12.1195    6.6141   -7.8509 C.3     0  UNK         0.6321
    681 C         -10.5653   12.6929   -7.7565 C.3     0  UNK         0.6321
    682 C          -6.0425   12.9259   -5.9797 C.3     0  UNK        -0.3160
    683 C         -11.4740    7.8857   -8.2092 C.1     0  UNK         0.2567
    684 C         -13.4889    6.6392   -8.3726 C.1     0  UNK         0.2567
    685 C         -11.4112    5.5649   -8.6014 C.1     0  UNK         0.2567
    686 C          -9.4341   11.8082   -8.0793 C.1     0  UNK         0.2567
    687 C         -10.2594   14.0299   -8.2786 C.1     0  UNK         0.2567
    688 C         -11.7365   12.2423   -8.5212 C.1     0  UNK         0.2567
    689 C          -4.4824   10.8260   -7.7304 C.3     0  UNK         0.6321
    690 C          -3.0854   10.8039   -8.1710 C.1     0  UNK         0.2567
    691 C          -5.1355   11.9118   -8.4774 C.1     0  UNK         0.2567
    692 C          -5.1229    9.5734   -8.1614 C.1     0  UNK         0.2567
    693 C          -6.1438    4.7775   -7.7807 C.3     0  UNK         0.6321
    694 C          -7.2454    5.7251   -8.0220 C.1     0  UNK         0.2567
    695 C          -6.4999    3.4800   -8.3649 C.1     0  UNK         0.2567
    696 C          -4.9511    5.2230   -8.5166 C.1     0  UNK         0.2567
    697 C         -12.9257    9.9135   -3.9953 C.3     0  UNK         0.0000
    698 C         -13.0129    8.6740   -3.3243 C.3     0  UNK         0.0000
    699 C          -8.4054   15.5964    5.4430 C.3     0  UNK         0.0000
    700 C          -7.1713   16.2667    5.5956 C.3     0  UNK         0.0000
    701 C          -9.6349   16.2684    5.5893 C.3     0  UNK         0.0000
    702 C          -4.7330   16.2575    5.7360 C.3     0  UNK         0.0000
    703 C          -5.9460   15.5680    5.4935 C.3     0  UNK         0.0000
    704 C          -4.7264    0.7288    5.6002 C.3     0  UNK         0.0000
    705 C          -5.9350    1.4251    5.3464 C.3     0  UNK         0.0000
    706 C          -9.6374    0.7273    5.4056 C.3     0  UNK         0.0000
    707 C         -10.8627    1.4308    5.3060 C.3     0  UNK         0.0000
    708 C         -12.0669    0.7311    5.5675 C.3     0  UNK         0.0000
    709 C         -16.9370    7.8037    5.4146 C.3     0  UNK         0.0000
    710 C         -16.9415    9.2058    5.4376 C.3     0  UNK         0.0000
    711 C         -16.9441   12.0142    5.7610 C.3     0  UNK         0.0000
    712 C         -16.9433   13.4193    5.9252 C.3     0  UNK         0.0000
    713 N         -12.6474   11.9239   -9.1270 N.1     0  UNK        -0.4424
    714 N         -10.0143   15.0783   -8.6540 N.1     0  UNK        -0.4424
    715 N          -1.9831   10.7945   -8.4646 N.1     0  UNK        -0.4424
    716 N          -5.6229   12.7498   -9.0759 N.1     0  UNK        -0.4424
    717 N          -8.5112   11.1578   -8.2516 N.1     0  UNK        -0.4424
    718 N         -14.5684    6.6517   -8.7426 N.1     0  UNK        -0.4424
    719 N         -10.8768    4.7567   -9.2020 N.1     0  UNK        -0.4424
    720 N          -6.7839    2.4512   -8.7656 N.1     0  UNK        -0.4424
    721 N          -4.0158    5.5311   -9.0898 N.1     0  UNK        -0.4424
    722 N          -8.1453    6.4259   -8.0842 N.1     0  UNK        -0.4424
    723 N         -11.0143    8.9063   -8.4371 N.1     0  UNK        -0.4424
    724 N          -5.5798    8.5631   -8.4355 N.1     0  UNK        -0.4424
    725 H         -13.0967   11.3558   -7.0038 H       0  UNK         0.1459
    726 H         -13.6112    8.7850   -7.0883 H       0  UNK         0.1459
    727 H          -8.3629    3.3185   -7.0790 H       0  UNK         0.1459
    728 H         -10.8787    4.0382   -7.0669 H       0  UNK         0.1459
    729 H          -3.5596    6.0222   -6.9541 H       0  UNK         0.1459
    730 H          -3.0874    8.6271   -6.9936 H       0  UNK         0.1459
    731 H          -8.3387   14.0158   -7.0000 H       0  UNK         0.1459
    732 H          -5.8133   13.3726   -6.9229 H       0  UNK         0.1459
    733 C           7.6765   13.2584   -5.4846 C.3     0  UNK         0.1701
    734 C           6.5930   12.7099   -6.2495 C.3     0  UNK        -0.2451
    735 C           5.5577   12.0120   -5.5335 C.3     0  UNK         0.1701
    736 C           4.6531   11.1069   -6.1501 C.3     0  UNK        -0.3160
    737 C           4.2902    9.9157   -5.4897 C.3     0  UNK         0.1701
    738 C           4.0981    8.7080   -6.1925 C.3     0  UNK        -0.3160
    739 C           4.5204    7.4878   -5.5885 C.3     0  UNK         0.1701
    740 C           4.5165    7.4581   -4.1679 C.3     0  UNK         0.0000
    741 C           5.0109    6.3441   -3.4575 C.3     0  UNK         0.0000
    742 C           5.7549    5.3815   -4.1711 C.3     0  UNK         0.0000
    743 C           6.6696    4.5953   -3.4207 C.3     0  UNK         0.0000
    744 C           6.6426    4.5898   -2.0103 C.3     0  UNK         0.0000
    745 C           7.7419    4.1090   -1.2730 C.3     0  UNK         0.0000
    746 C           8.9590    3.9162   -1.9636 C.3     0  UNK         0.0000
    747 C           9.0005    3.8880   -3.3735 C.3     0  UNK         0.0000
    748 C          10.2217    4.0306   -4.0875 C.3     0  UNK         0.0000
    749 C          10.2340    4.0268   -5.5094 C.3     0  UNK         0.1701
    750 C          11.3377    4.5986   -6.2318 C.3     0  UNK        -0.2451
    751 C           9.0038    3.6966   -6.1438 C.3     0  UNK        -0.3160
    752 C           7.7952    3.9752   -5.4774 C.3     0  UNK         0.1701
    753 C           7.7045    4.1305    0.1414 C.3     0  UNK         0.0000
    754 C          10.1452    4.0610   -1.2276 C.3     0  UNK         0.0000
    755 C          11.2891    4.4955   -1.9314 C.3     0  UNK         0.0000
    756 C           6.5825    4.5846    0.8518 C.3     0  UNK         0.0000
    757 C           5.6723    5.3426    0.1021 C.3     0  UNK         0.0000
    758 C           4.9563    6.3080    0.8162 C.3     0  UNK         0.0000
    759 C           4.4924    7.4179    0.1020 C.3     0  UNK         0.0000
    760 C           4.2869    8.5879    0.8444 C.3     0  UNK         0.0000
    761 C           4.1481    8.5588    2.2563 C.3     0  UNK         0.0000
    762 C           4.1610    9.8041    2.9390 C.3     0  UNK         0.0000
    763 C           4.7994   10.8837    2.2719 C.3     0  UNK         0.0000
    764 C           5.3666   11.9616    2.9926 C.3     0  UNK         0.0000
    765 C           4.1747    7.2878    2.9049 C.3     0  UNK         0.0000
    766 C           4.8454    6.2431    2.2191 C.3     0  UNK         0.0000
    767 C           5.6910    5.3491   -1.3117 C.3     0  UNK         0.0000
    768 C           6.6553    4.4136   -6.1756 C.3     0  UNK        -0.3160
    769 C           7.7960    4.0659   -4.0825 C.3     0  UNK         0.0000
    770 C          11.3277    4.5005   -3.3510 C.3     0  UNK         0.0000
    771 C           4.4991    7.4286   -1.3115 C.3     0  UNK         0.0000
    772 C           4.2963    8.6291   -2.0128 C.3     0  UNK         0.0000
    773 C           4.9816    6.3243   -2.0396 C.3     0  UNK         0.0000
    774 C           4.4196    9.8277   -1.2825 C.3     0  UNK         0.0000
    775 C           4.8377   10.9821   -1.9785 C.3     0  UNK         0.0000
    776 C           5.5528   11.9444   -1.2447 C.3     0  UNK         0.0000
    777 C           5.5605   11.8922    0.1698 C.3     0  UNK         0.0000
    778 C           4.8732   10.8892    0.8661 C.3     0  UNK         0.0000
    779 C           4.4314    9.7894    0.1304 C.3     0  UNK         0.0000
    780 C          12.3058    5.2489   -4.0470 C.3     0  UNK         0.0000
    781 C          13.0123    6.2185   -3.2867 C.3     0  UNK         0.0000
    782 C          13.4838    7.3693   -3.9601 C.3     0  UNK         0.0000
    783 C          12.3545    5.2717   -5.4716 C.3     0  UNK         0.1701
    784 C          13.2853    6.1832   -6.0436 C.3     0  UNK        -0.3160
    785 C          13.6158    7.3636   -5.3539 C.3     0  UNK         0.1701
    786 C           5.5647   12.0025   -4.1108 C.3     0  UNK         0.0000
    787 C           4.8349   11.0147   -3.3909 C.3     0  UNK         0.0000
    788 C           6.4283   12.6456    2.3464 C.3     0  UNK         0.0000
    789 C           7.5275   13.2006    3.0434 C.3     0  UNK         0.0000
    790 C           8.7711   13.2018    2.3595 C.3     0  UNK         0.0000
    791 C           9.9982   13.1989    3.0706 C.3     0  UNK         0.0000
    792 C          11.1083   12.6259    2.4043 C.3     0  UNK         0.0000
    793 C          12.1486   11.9437    3.0842 C.3     0  UNK         0.0000
    794 C          12.7328   10.8545    2.3889 C.3     0  UNK         0.0000
    795 C          12.6930   10.8308    0.9825 C.3     0  UNK         0.0000
    796 C          13.1920    9.7380    0.2695 C.3     0  UNK         0.0000
    797 C          13.3657    8.5505    1.0001 C.3     0  UNK         0.0000
    798 C          13.3488    9.7858    3.0911 C.3     0  UNK         0.0000
    799 C          13.4144    8.5383    2.4200 C.3     0  UNK         0.0000
    800 C          12.0123   11.8147    0.2600 C.3     0  UNK         0.0000
    801 C          11.0760   12.5622    0.9850 C.3     0  UNK         0.0000
    802 C           9.9890   13.0520    0.2461 C.3     0  UNK         0.0000
    803 C          13.3718    7.2797    3.0843 C.3     0  UNK         0.0000
    804 C          12.7957    6.2052    2.3720 C.3     0  UNK         0.0000
    805 C          12.2029    5.1069    3.0535 C.3     0  UNK         0.0000
    806 C           6.4891   12.6123    0.9273 C.3     0  UNK         0.0000
    807 C           7.5993   13.0925    0.2162 C.3     0  UNK         0.0000
    808 C           8.7875   13.1874    0.9507 C.3     0  UNK         0.0000
    809 C          13.5394    8.5930   -3.2656 C.3     0  UNK         0.0000
    810 C          13.3321    9.7931   -4.0024 C.3     0  UNK         0.0000
    811 C          12.8132   10.8943   -3.2912 C.3     0  UNK         0.0000
    812 C          12.1026   11.8779   -4.0166 C.3     0  UNK         0.0000
    813 C          12.1267   11.9102   -5.4397 C.3     0  UNK         0.1701
    814 C          11.1591   12.6531   -3.2847 C.3     0  UNK         0.0000
    815 C          10.0617   13.2048   -3.9780 C.3     0  UNK         0.0000
    816 C          10.1142   13.3116   -5.3714 C.3     0  UNK         0.1701
    817 C          13.4846    8.5750   -1.8555 C.3     0  UNK         0.0000
    818 C          13.2455    9.7612   -1.1443 C.3     0  UNK         0.0000
    819 C          12.7850   10.8790   -1.8726 C.3     0  UNK         0.0000
    820 C          13.3448    7.3613   -1.1464 C.3     0  UNK         0.0000
    821 C          12.9558    6.2204   -1.8748 C.3     0  UNK         0.0000
    822 C          12.2154    5.2431   -1.1825 C.3     0  UNK         0.0000
    823 C          12.1480    5.2553    0.2305 C.3     0  UNK         0.0000
    824 C          12.8004    6.2440    0.9665 C.3     0  UNK         0.0000
    825 C          13.2720    7.3624    0.2657 C.3     0  UNK         0.0000
    826 C          11.1877    4.5153    0.9411 C.3     0  UNK         0.0000
    827 C          10.0928    4.0862    0.1846 C.3     0  UNK         0.0000
    828 C           8.8795    3.9820    0.8822 C.3     0  UNK         0.0000
    829 C           8.8290    3.9129    2.2892 C.3     0  UNK         0.0000
    830 C          10.0498    3.8640    3.0081 C.3     0  UNK         0.0000
    831 C          11.1801    4.4275    2.3564 C.3     0  UNK         0.0000
    832 C           7.5711    3.8909    2.9575 C.3     0  UNK         0.0000
    833 C           6.4830    4.4823    2.2644 C.3     0  UNK         0.0000
    834 C           5.3965    5.1309    2.9112 C.3     0  UNK         0.0000
    835 C           7.6079   13.1598   -1.1975 C.3     0  UNK         0.0000
    836 C           8.8206   13.3356   -1.8931 C.3     0  UNK         0.0000
    837 C           6.4973   12.7173   -1.9484 C.3     0  UNK         0.0000
    838 C           6.5133   12.7415   -3.3696 C.3     0  UNK         0.0000
    839 C           7.6404   13.2319   -4.0623 C.3     0  UNK         0.0000
    840 C           8.8344   13.3749   -3.3035 C.3     0  UNK         0.0000
    841 C          10.0099   13.1119   -1.1648 C.3     0  UNK         0.0000
    842 C          11.1310   12.6272   -1.8729 C.3     0  UNK         0.0000
    843 C          12.0488   11.8421   -1.1547 C.3     0  UNK         0.0000
    844 C          13.3818    9.7952   -5.4223 C.3     0  UNK         0.1701
    845 C          12.8279   10.8911   -6.1736 C.3     0  UNK        -0.2451
    846 C          13.8157    8.5868   -6.0313 C.3     0  UNK        -0.3160
    847 C           8.9282   13.5901   -6.0758 C.3     0  UNK        -0.3160
    848 C           4.7719   12.2802    4.2330 C.3     0  UNK         0.0000
    849 C           4.9992   13.5425    4.8521 C.3     0  UNK         0.0000
    850 C           3.8391   14.1630    5.4071 C.3     0  UNK         0.0000
    851 C           2.6183   13.4514    5.5410 C.3     0  UNK         0.0000
    852 C           2.5841   12.0618    5.2737 C.3     0  UNK         0.0000
    853 C           3.6732   11.4518    4.6205 C.3     0  UNK         0.0000
    854 C           7.4895   13.8108    4.3121 C.3     0  UNK         0.0000
    855 C           6.2500   14.2428    4.8739 C.3     0  UNK         0.0000
    856 C          10.0015   13.8145    4.3373 C.3     0  UNK         0.0000
    857 C           8.7409   14.3354    4.7545 C.3     0  UNK         0.0000
    858 C          11.2229   14.2475    4.9344 C.3     0  UNK         0.0000
    859 C          12.7005   12.2730    4.3419 C.3     0  UNK         0.0000
    860 C          12.4686   13.5415    4.9448 C.3     0  UNK         0.0000
    861 C          13.9174   10.0890    4.3436 C.3     0  UNK         0.0000
    862 C          13.7776   11.4441    4.7719 C.3     0  UNK         0.0000
    863 C          14.8595   12.0567    5.4296 C.3     0  UNK         0.0000
    864 C          16.0522   11.3172    5.5789 C.3     0  UNK         0.0000
    865 C          16.0523    9.9153    5.3820 C.3     0  UNK         0.0000
    866 C          14.9056    9.2317    4.9052 C.3     0  UNK         0.0000
    867 C           3.5365    6.9381    4.1138 C.3     0  UNK         0.0000
    868 C           2.5387    7.7906    4.6731 C.3     0  UNK         0.0000
    869 C           1.3960    7.0923    5.1541 C.3     0  UNK         0.0000
    870 C           1.3928    5.6822    5.3297 C.3     0  UNK         0.0000
    871 C           2.5826    4.9408    5.1627 C.3     0  UNK         0.0000
    872 C           3.6695    5.5686    4.5228 C.3     0  UNK         0.0000
    873 C           4.7729    4.7502    4.1236 C.3     0  UNK         0.0000
    874 C           4.9980    3.4670    4.7208 C.3     0  UNK         0.0000
    875 C           7.5045    3.2104    4.1948 C.3     0  UNK         0.0000
    876 C          10.0277    3.2029    4.2531 C.3     0  UNK         0.0000
    877 C           8.7547    2.6703    4.6380 C.3     0  UNK         0.0000
    878 C           8.7391    1.4009    5.2387 C.3     0  UNK         0.0000
    879 C           9.9690    0.7276    5.4254 C.3     0  UNK         0.0000
    880 C          11.2431    2.7562    4.8552 C.3     0  UNK         0.0000
    881 C          12.7211    4.7583    4.3185 C.3     0  UNK         0.0000
    882 C          12.4846    3.4721    4.8924 C.3     0  UNK         0.0000
    883 C          13.9257    6.9491    4.3380 C.3     0  UNK         0.0000
    884 C          14.9109    7.7985    4.8996 C.3     0  UNK         0.0000
    885 C          16.0599    7.0985    5.3492 C.3     0  UNK         0.0000
    886 C          16.0656    5.6911    5.5169 C.3     0  UNK         0.0000
    887 C          14.8737    4.9536    5.3848 C.3     0  UNK         0.0000
    888 C          13.7898    5.5869    4.7539 C.3     0  UNK         0.0000
    889 C           3.5380   10.1018    4.1683 C.3     0  UNK         0.0000
    890 C           2.5387    9.2331    4.6989 C.3     0  UNK         0.0000
    891 C           1.3955    9.9199    5.2018 C.3     0  UNK         0.0000
    892 C           1.3895   11.3238    5.4177 C.3     0  UNK         0.0000
    893 C           6.2784   15.5671    5.3848 C.3     0  UNK         0.0000
    894 C           5.0701   16.2601    5.6187 C.3     0  UNK         0.0000
    895 C          13.6163   14.1620    5.5198 C.3     0  UNK         0.0000
    896 C          13.6060   15.5497    5.7949 C.3     0  UNK         0.0000
    897 C          14.8191   16.2501    6.0212 C.3     0  UNK         0.0000
    898 C          16.0446   15.5411    6.0716 C.3     0  UNK         0.0000
    899 C          16.0433   14.1309    5.9447 C.3     0  UNK         0.0000
    900 C          14.8312   13.4474    5.6706 C.3     0  UNK         0.0000
    901 C           1.4077   14.1349    5.8317 C.3     0  UNK         0.0000
    902 C           1.4085   15.5442    5.9651 C.3     0  UNK         0.0000
    903 C           0.1782   16.2484    6.0623 C.3     0  UNK         0.0000
    904 C           3.8517   15.5520    5.6775 C.3     0  UNK         0.0000
    905 C           2.6360   16.2517    5.8947 C.3     0  UNK         0.0000
    906 C          13.6308    2.8377    5.4582 C.3     0  UNK         0.0000
    907 C          14.8449    3.5555    5.6075 C.3     0  UNK         0.0000
    908 C          16.0553    2.8603    5.8587 C.3     0  UNK         0.0000
    909 C          16.0534    1.4437    5.9816 C.3     0  UNK         0.0000
    910 C          14.8296    0.7320    5.9360 C.3     0  UNK         0.0000
    911 C           0.1829    4.9822    5.5580 C.3     0  UNK         0.0000
    912 C           0.1797    3.5711    5.7258 C.3     0  UNK         0.0000
    913 C           2.6164    3.5458    5.4176 C.3     0  UNK         0.0000
    914 C           1.4070    2.8588    5.7193 C.3     0  UNK         0.0000
    915 C           1.4037    1.4455    5.8651 C.3     0  UNK         0.0000
    916 C           0.1755    0.7329    5.9701 C.3     0  UNK         0.0000
    917 C           2.6310    0.7360    5.8024 C.3     0  UNK         0.0000
    918 C           3.8442    1.4437    5.5648 C.3     0  UNK         0.0000
    919 C           3.8382    2.8357    5.2789 C.3     0  UNK         0.0000
    920 C           6.2547    2.7637    4.7403 C.3     0  UNK         0.0000
    921 C          13.6190    1.4405    5.7162 C.3     0  UNK         0.0000
    922 C           5.7893    5.3761   -5.5938 C.3     0  UNK         0.1701
    923 C           5.1288    6.4200   -6.3318 C.3     0  UNK        -0.2451
    924 C           5.2087    6.5754   -7.9278 C.3     0  UNK         0.6321
    925 C           6.7607   12.6512   -7.8433 C.3     0  UNK         0.6321
    926 C          11.2781   12.8827   -6.0366 C.3     0  UNK        -0.3160
    927 C           5.8553    7.8488   -8.2808 C.1     0  UNK         0.2567
    928 C           3.8393    6.5992   -8.4500 C.1     0  UNK         0.2567
    929 C           5.9227    5.5253   -8.6699 C.1     0  UNK         0.2567
    930 C           7.8924   11.7632   -8.1563 C.1     0  UNK         0.2567
    931 C           7.0726   13.9889   -8.3598 C.1     0  UNK         0.2567
    932 C           5.5888   12.2022   -8.6098 C.1     0  UNK         0.2567
    933 C          12.8475   10.7866   -7.7759 C.3     0  UNK         0.6321
    934 C          14.2441   10.7626   -8.2185 C.1     0  UNK         0.2567
    935 C          12.1989   11.8699   -8.5316 C.1     0  UNK         0.2567
    936 C          12.2095    9.5356   -8.2139 C.1     0  UNK         0.2567
    937 C          11.1852    4.7387   -7.8200 C.3     0  UNK         0.6321
    938 C          10.0860    5.6851   -8.0726 C.1     0  UNK         0.2567
    939 C          10.8329    3.4429   -8.4099 C.1     0  UNK         0.2567
    940 C          12.3780    5.1836   -8.5542 C.1     0  UNK         0.2567
    941 C           4.3820    9.8791   -4.0957 C.3     0  UNK         0.0000
    942 C           4.2907    8.6428   -3.4220 C.3     0  UNK         0.0000
    943 C           8.7324   15.5969    5.3643 C.3     0  UNK         0.0000
    944 C           9.9616   16.2668    5.5411 C.3     0  UNK         0.0000
    945 C           7.5009   16.2683    5.5011 C.3     0  UNK         0.0000
    946 C          12.3899   16.2579    5.7261 C.3     0  UNK         0.0000
    947 C          11.1861   15.5681    5.4544 C.3     0  UNK         0.0000
    948 C          12.4022    0.7293    5.6343 C.3     0  UNK         0.0000
    949 C          11.2016    1.4252    5.3548 C.3     0  UNK         0.0000
    950 C           7.4985    0.7328    5.3789 C.3     0  UNK         0.0000
    951 C           6.2733    1.4350    5.2553 C.3     0  UNK         0.0000
    952 C           5.0637    0.7363    5.5110 C.3     0  UNK         0.0000
    953 C           0.1827    7.8039    5.2850 C.3     0  UNK         0.0000
    954 C           0.1792    9.2101    5.3072 C.3     0  UNK         0.0000
    955 C           0.1769   12.0205    5.6473 C.3     0  UNK         0.0000
    956 C           0.1763   13.4254    5.8261 C.3     0  UNK         0.0000
    957 N           4.6732   11.8836   -9.2087 N.1     0  UNK        -0.4424
    958 N           7.3204   15.0408   -8.7227 N.1     0  UNK        -0.4424
    959 N          15.3420   10.7519   -8.5280 N.1     0  UNK        -0.4424
    960 N          11.7186   12.7051   -9.1397 N.1     0  UNK        -0.4424
    961 N           8.8163   11.1097   -8.3104 N.1     0  UNK        -0.4424
    962 N           2.7567    6.6116   -8.8105 N.1     0  UNK        -0.4424
    963 N           6.4662    4.7172   -9.2622 N.1     0  UNK        -0.4424
    964 N          10.5484    2.4205   -8.8264 N.1     0  UNK        -0.4424
    965 N          13.3080    5.4916   -9.1356 N.1     0  UNK        -0.4424
    966 N           9.1876    6.3855   -8.1554 N.1     0  UNK        -0.4424
    967 N           6.3164    8.8713   -8.4970 N.1     0  UNK        -0.4424
    968 N          11.7560    8.5278   -8.5024 N.1     0  UNK        -0.4424
    969 H           4.2203   11.3169   -7.1022 H       0  UNK         0.1459
    970 H           3.7078    8.7363   -7.1882 H       0  UNK         0.1459
    971 H           8.9749    3.2911   -7.1340 H       0  UNK         0.1459
    972 H           6.4483    3.9823   -7.1295 H       0  UNK         0.1459
    973 H          13.7576    5.9880   -6.9816 H       0  UNK         0.1459
    974 H          14.2340    8.5809   -7.0162 H       0  UNK         0.1459
    975 H           8.9980   13.9857   -7.0684 H       0  UNK         0.1459
    976 H          11.5121   13.3162   -6.9851 H       0  UNK         0.1459
    977 O           9.7157  -10.1550    4.1424 O.2     1  LIG         0.0000
    978 O           9.4932   -9.9303    2.7798 O.2     1  LIG         0.0000
    979 O           7.7536   -7.6776    1.2408 O.2     2  LIG         0.0000
    980 O           8.9834   -7.1240    1.6085 O.2     2  LIG         0.0000
    981 O           7.6226   -7.7532   -5.1348 O.2     3  LIG         0.0000
    982 O           8.7960   -7.0221   -4.9182 O.2     3  LIG         0.0000
    983 O           9.0893   -6.4511    4.9802 O.2     4  LIG         0.0000
    984 O          10.1963   -7.2263    4.6241 O.2     4  LIG         0.0000
    985 O           0.2155   -2.3340   -1.2566 O.2     5  LIG         0.0000
    986 O           0.2400   -2.4502    0.1346 O.2     5  LIG         0.0000
    987 O          14.1955  -16.2855    2.7916 O.2     6  LIG         0.0000
    988 O          13.1175  -15.4104    2.6118 O.2     6  LIG         0.0000
    989 O           2.9309  -15.8157    2.6774 O.2     7  LIG         0.0000
    990 O           2.6071  -14.4637    2.5432 O.2     7  LIG         0.0000
    991 O           0.6398   -8.9719   -1.4018 O.2     8  LIG         0.0000
    992 O           1.3967   -8.4778   -0.3349 O.2     8  LIG         0.0000
    993 O           0.7157  -14.8403   -0.4071 O.2     9  LIG         0.0000
    994 O           0.8780  -15.9968   -1.1785 O.2     9  LIG         0.0000
    995 O           8.9714  -10.0308   -0.3672 O.2    10  LIG         0.0000
    996 O          10.1733   -9.3241   -0.2804 O.2    10  LIG         0.0000
    997 O           9.4102  -16.5707   -1.2298 O.2    11  LIG         0.0000
    998 O           8.2245  -16.1373   -1.8102 O.2    11  LIG         0.0000
    999 O          11.6393   -1.5048    1.1849 O.2    12  LIG         0.0000
   1000 O          12.3773   -1.5231    2.3675 O.2    12  LIG         0.0000
   1001 O          15.6612   -5.0630   -1.3811 O.2    13  LIG         0.0000
   1002 O          15.6687   -5.2696    0.0006 O.2    13  LIG         0.0000
   1003 O          15.4217   -2.1187    2.8526 O.2    14  LIG         0.0000
   1004 O          15.5236   -3.4924    2.6255 O.2    14  LIG         0.0000
   1005 O          12.7704  -15.4432   -0.6533 O.2    15  LIG         0.0000
   1006 O          13.9249  -14.8121   -0.1779 O.2    15  LIG         0.0000
   1007 O           6.8250   -9.4796    5.1336 O.2    16  LIG         0.0000
   1008 O           7.0179   -8.5303    4.1252 O.2    16  LIG         0.0000
   1009 O           3.9375  -16.0418   -0.2833 O.2    17  LIG         0.0000
   1010 O           4.1450  -14.6686   -0.1115 O.2    17  LIG         0.0000
   1011 O           4.5319   -1.4095    2.4386 O.2    18  LIG         0.0000
   1012 O           5.6927   -1.5292    1.6739 O.2    18  LIG         0.0000
   1013 O          16.4791   -9.3283    2.1188 O.2    19  LIG         0.0000
   1014 O          17.0487  -10.6115    2.2307 O.2    19  LIG         0.0000
   1015 O           2.0089  -12.0405    0.6764 O.2    20  LIG         0.0000
   1016 O           2.1873  -12.0773   -0.7095 O.2    20  LIG         0.0000
   1017 O           3.5360  -14.0187   -3.0930 O.2    21  LIG         0.0000
   1018 O           4.5596  -14.9595   -3.2618 O.2    21  LIG         0.0000
   1019 O           1.6075   -5.4595   -1.5672 O.2    22  LIG         0.0000
   1020 O           1.8794   -5.1510   -0.2339 O.2    22  LIG         0.0000
   1021 O           2.1230   -3.6497    2.4838 O.2    23  LIG         0.0000
   1022 O           1.6054   -2.3864    2.7931 O.2    23  LIG         0.0000
   1023 O          16.8801   -6.1157    2.8363 O.2    24  LIG         0.0000
   1024 O         -16.4386   -6.6839    1.9295 O.2    24  LIG         0.0000
   1025 O           9.4713  -16.6136    2.3848 O.2    25  LIG         0.0000
   1026 O          10.3583  -15.8804    1.5979 O.2    25  LIG         0.0000
   1027 O          15.4352  -13.4219    2.6420 O.2    26  LIG         0.0000
   1028 O          16.8078  -13.5388    2.8625 O.2    26  LIG         0.0000
   1029 O           3.4423   -2.8065   -1.6868 O.2    27  LIG         0.0000
   1030 O           3.5213   -2.5531   -0.3138 O.2    27  LIG         0.0000
   1031 O          12.8423   -1.7186   -2.8961 O.2    28  LIG         0.0000
   1032 O          11.8671   -1.3245   -1.9721 O.2    28  LIG         0.0000
   1033 O          15.7267   -5.0921   -4.5918 O.2    29  LIG         0.0000
   1034 O          15.1166   -3.8820   -4.2408 O.2    29  LIG         0.0000
   1035 O           2.1063   -4.5534   -4.5427 O.2    30  LIG         0.0000
   1036 O           1.3956   -3.4567   -4.0446 O.2    30  LIG         0.0000
   1037 O          16.2810  -13.6310   -3.0578 O.2    31  LIG         0.0000
   1038 O          14.8920  -13.7402   -2.9255 O.2    31  LIG         0.0000
   1039 O          16.0889  -11.3983   -1.0559 O.2    32  LIG         0.0000
   1040 O          15.6875  -12.3347   -0.1054 O.2    32  LIG         0.0000
   1041 O          17.0703  -16.7481    1.7649 O.2    33  LIG         0.0000
   1042 O          17.1419  -16.4951    3.1335 O.2    33  LIG         0.0000
   1043 O           6.9119  -15.9026    0.9319 O.2    34  LIG         0.0000
   1044 O           6.1951  -15.7158    2.1161 O.2    34  LIG         0.0000
   1045 O           6.1461   -1.1604   -1.4536 O.2    35  LIG         0.0000
   1046 O           5.8710   -1.1218   -2.8249 O.2    35  LIG         0.0000
   1047 O          10.1292   -0.3926   -4.3971 O.2    36  LIG         0.0000
   1048 O           8.8127   -0.8366   -4.2209 O.2    36  LIG         0.0000
   1049 O           7.6194   -7.7766   -1.9546 O.2    37  LIG         0.0000
   1050 O           8.7867   -7.0290   -1.7745 O.2    37  LIG         0.0000
   1051 O          10.2531   -9.3274   -3.4420 O.2    38  LIG         0.0000
   1052 O           9.0536  -10.0339   -3.5658 O.2    38  LIG         0.0000
   1053 O          14.1439   -2.5682   -0.0965 O.2    39  LIG         0.0000
   1054 O          14.4910   -1.2120   -0.0365 O.2    39  LIG         0.0000
   1055 O          -7.5683  -10.2157    4.1412 O.2    40  LIG         0.0000
   1056 O          -7.7975   -9.9912    2.7796 O.2    40  LIG         0.0000
   1057 O          -9.5345   -7.7542    1.2431 O.2    41  LIG         0.0000
   1058 O          -8.3153   -7.1747    1.6061 O.2    41  LIG         0.0000
   1059 O          -9.6767   -7.8235   -5.1354 O.2    42  LIG         0.0000
   1060 O          -8.5042   -7.0911   -4.9184 O.2    42  LIG         0.0000
   1061 O          -8.1901   -6.4944    4.9612 O.2    43  LIG         0.0000
   1062 O          -7.0737   -7.2539    4.5979 O.2    43  LIG         0.0000
   1063 O         -17.0024   -2.3392   -1.2693 O.2    44  LIG         0.0000
   1064 O         -16.9115   -2.4936    0.1161 O.2    44  LIG         0.0000
   1065 O          -3.0571  -16.3059    2.7894 O.2    45  LIG         0.0000
   1066 O          -4.1698  -15.4722    2.6099 O.2    45  LIG         0.0000
   1067 O         -14.2165  -15.8187    2.7406 O.2    46  LIG         0.0000
   1068 O         -14.5816  -14.4800    2.5963 O.2    46  LIG         0.0000
   1069 O         -16.6704   -8.7742   -1.4510 O.2    47  LIG         0.0000
   1070 O         -15.8979   -8.5575   -0.3052 O.2    47  LIG         0.0000
   1071 O         -16.5653  -14.8718   -0.4580 O.2    48  LIG         0.0000
   1072 O         -16.4177  -16.0462   -1.2035 O.2    48  LIG         0.0000
   1073 O          -8.3252  -10.0871   -0.3686 O.2    49  LIG         0.0000
   1074 O          -7.1140   -9.3970   -0.2779 O.2    49  LIG         0.0000
   1075 O          -7.8857  -16.6388   -1.1981 O.2    50  LIG         0.0000
   1076 O          -9.0638  -16.1946   -1.7850 O.2    50  LIG         0.0000
   1077 O          -5.6850   -1.4961    1.1788 O.2    51  LIG         0.0000
   1078 O          -4.8785   -1.5233    2.3146 O.2    51  LIG         0.0000
   1079 O          -1.4971   -5.0917   -1.4095 O.2    52  LIG         0.0000
   1080 O          -1.5863   -5.2760   -0.0291 O.2    52  LIG         0.0000
   1081 O          -1.8155   -2.1646    2.7841 O.2    53  LIG         0.0000
   1082 O          -1.6688   -3.5341    2.5558 O.2    53  LIG         0.0000
   1083 O          -4.5382  -15.4898   -0.6396 O.2    54  LIG         0.0000
   1084 O          -3.3804  -14.8576   -0.1731 O.2    54  LIG         0.0000
   1085 O         -10.4303   -9.5325    5.1653 O.2    55  LIG         0.0000
   1086 O         -10.2291   -8.5933    4.1494 O.2    55  LIG         0.0000
   1087 O         -13.3839  -16.0990   -0.2671 O.2    56  LIG         0.0000
   1088 O         -13.1472  -14.7288   -0.1122 O.2    56  LIG         0.0000
   1089 O         -12.7552   -1.4519    2.4481 O.2    57  LIG         0.0000
   1090 O         -11.5947   -1.5434    1.6783 O.2    57  LIG         0.0000
   1091 O          -0.7316   -9.4136    2.0181 O.2    58  LIG         0.0000
   1092 O          -0.2166  -10.7110    2.2157 O.2    58  LIG         0.0000
   1093 O         -15.2078  -12.1362    0.6599 O.2    59  LIG         0.0000
   1094 O         -15.0602  -12.1533   -0.7291 O.2    59  LIG         0.0000
   1095 O         -13.7734  -14.0828   -3.0925 O.2    60  LIG         0.0000
   1096 O         -12.7433  -15.0159   -3.2611 O.2    60  LIG         0.0000
   1097 O         -15.5848   -5.5627   -1.6124 O.2    61  LIG         0.0000
   1098 O         -15.3226   -5.1852   -0.2949 O.2    61  LIG         0.0000
   1099 O         -15.1453   -3.7267    2.5250 O.2    62  LIG         0.0000
   1100 O         -15.6293   -2.4552    2.8510 O.2    62  LIG         0.0000
   1101 O          -0.3532   -6.1604    2.7306 O.2    63  LIG         0.0000
   1102 O           0.4943   -6.7030    1.7685 O.2    63  LIG         0.0000
   1103 O          -7.8414  -16.6519    2.4348 O.2    64  LIG         0.0000
   1104 O          -6.9597  -15.9363    1.6261 O.2    64  LIG         0.0000
   1105 O          -1.8107  -13.4895    2.5747 O.2    65  LIG         0.0000
   1106 O          -0.4402  -13.6479    2.7933 O.2    65  LIG         0.0000
   1107 O         -13.8368   -2.8624   -1.6861 O.2    66  LIG         0.0000
   1108 O         -13.7465   -2.6041   -0.3145 O.2    66  LIG         0.0000
   1109 O          -4.4619   -1.7885   -2.8937 O.2    67  LIG         0.0000
   1110 O          -5.4280   -1.3825   -1.9652 O.2    67  LIG         0.0000
   1111 O          -1.5236   -5.1368   -4.5903 O.2    68  LIG         0.0000
   1112 O          -2.1750   -3.9468   -4.2448 O.2    68  LIG         0.0000
   1113 O         -15.1926   -4.6228   -4.5496 O.2    69  LIG         0.0000
   1114 O         -15.8375   -3.4943   -4.0335 O.2    69  LIG         0.0000
   1115 O          -1.0197  -13.6865   -3.0165 O.2    70  LIG         0.0000
   1116 O          -2.4111  -13.8028   -2.9253 O.2    70  LIG         0.0000
   1117 O          -1.0535  -11.3158   -0.9914 O.2    71  LIG         0.0000
   1118 O          -1.5559  -12.3323   -0.1813 O.2    71  LIG         0.0000
   1119 O          -0.1834  -16.7944    1.6932 O.2    72  LIG         0.0000
   1120 O          -0.0114  -16.5494    3.0540 O.2    72  LIG         0.0000
   1121 O         -10.3923  -15.9412    0.9546 O.2    73  LIG         0.0000
   1122 O         -11.0824  -15.7197    2.1489 O.2    73  LIG         0.0000
   1123 O         -11.1360   -1.1886   -1.4455 O.2    74  LIG         0.0000
   1124 O         -11.4280   -1.1897   -2.8138 O.2    74  LIG         0.0000
   1125 O          -7.1848   -0.4693   -4.3818 O.2    75  LIG         0.0000
   1126 O          -8.4971   -0.8918   -4.1443 O.2    75  LIG         0.0000
   1127 O          -9.6747   -7.8480   -1.9559 O.2    76  LIG         0.0000
   1128 O          -8.5120   -7.0937   -1.7738 O.2    76  LIG         0.0000
   1129 O          -7.0450   -9.3984   -3.4420 O.2    77  LIG         0.0000
   1130 O          -8.2461  -10.1022   -3.5664 O.2    77  LIG         0.0000
   1131 O          -3.1398   -2.6398   -0.0982 O.2    78  LIG         0.0000
   1132 O          -2.7387   -1.2995   -0.0418 O.2    78  LIG         0.0000
   1133 O          -7.5758    6.9692    3.9274 O.2    79  LIG         0.0000
   1134 O          -7.8218    7.2059    2.5715 O.2    79  LIG         0.0000
   1135 O          -9.5573    9.4916    1.0514 O.2    80  LIG         0.0000
   1136 O          -8.3415   10.0671    1.4271 O.2    80  LIG         0.0000
   1137 O          -9.7164    9.4530   -5.3244 O.2    81  LIG         0.0000
   1138 O          -8.5443   10.1857   -5.1070 O.2    81  LIG         0.0000
   1139 O          -8.2464   10.7269    4.8135 O.2    82  LIG         0.0000
   1140 O          -7.1315    9.9803    4.4226 O.2    82  LIG         0.0000
   1141 O         -17.0360   14.8491   -1.4725 O.2    83  LIG         0.0000
   1142 O         -16.9273   14.7476   -0.0825 O.2    83  LIG         0.0000
   1143 O          -3.1079    0.7704    2.5925 O.2    84  LIG         0.0000
   1144 O          -4.1711    1.6548    2.3583 O.2    84  LIG         0.0000
   1145 O         -14.2201    1.3787    2.5499 O.2    85  LIG         0.0000
   1146 O         -14.5946    2.7148    2.3878 O.2    85  LIG         0.0000
   1147 O         -16.4972    8.3570   -1.8126 O.2    86  LIG         0.0000
   1148 O         -15.9759    8.6991   -0.5597 O.2    86  LIG         0.0000
   1149 O         -16.6072    2.3695   -0.6069 O.2    87  LIG         0.0000
   1150 O         -16.4728    1.2114   -1.3809 O.2    87  LIG         0.0000
   1151 O          -8.3562    7.1575   -0.5545 O.2    88  LIG         0.0000
   1152 O          -7.1529    7.8641   -0.4684 O.2    88  LIG         0.0000
   1153 O          -8.0205    0.6984   -1.4557 O.2    89  LIG         0.0000
   1154 O          -9.2511    1.0264   -2.0179 O.2    89  LIG         0.0000
   1155 O          -5.6072   15.6074    0.9125 O.2    90  LIG         0.0000
   1156 O          -5.0255   15.5582    2.1797 O.2    90  LIG         0.0000
   1157 O          -1.5355   12.1605   -1.6053 O.2    91  LIG         0.0000
   1158 O          -1.6419   11.9759   -0.2259 O.2    91  LIG         0.0000
   1159 O          -1.9644   14.9538    2.7231 O.2    92  LIG         0.0000
   1160 O          -1.6762   13.6349    2.3925 O.2    92  LIG         0.0000
   1161 O          -4.5330    1.7197   -0.8498 O.2    93  LIG         0.0000
   1162 O          -3.4112    2.4081   -0.3743 O.2    93  LIG         0.0000
   1163 O         -10.4824    7.7337    4.9724 O.2    94  LIG         0.0000
   1164 O         -10.2423    8.6661    3.9596 O.2    94  LIG         0.0000
   1165 O         -13.4042    1.1656   -0.4819 O.2    95  LIG         0.0000
   1166 O         -13.1904    2.5380   -0.3085 O.2    95  LIG         0.0000
   1167 O         -12.7330   15.6009    2.4593 O.2    96  LIG         0.0000
   1168 O         -11.7724   15.4642    1.4606 O.2    96  LIG         0.0000
   1169 O          -0.7408    7.8897    1.8192 O.2    97  LIG         0.0000
   1170 O          -0.2791    6.5682    1.9931 O.2    97  LIG         0.0000
   1171 O         -15.1913    5.0896    0.4554 O.2    98  LIG         0.0000
   1172 O         -15.0802    5.1051   -0.9371 O.2    98  LIG         0.0000
   1173 O         -13.8105    3.1944   -3.2855 O.2    99  LIG         0.0000
   1174 O         -12.7850    2.2545   -3.4508 O.2    99  LIG         0.0000
   1175 O         -15.5849   11.7250   -1.7794 O.2   100  LIG         0.0000
   1176 O         -15.3823   12.0369   -0.4341 O.2   100  LIG         0.0000
   1177 O         -15.1614   13.4977    2.3821 O.2   101  LIG         0.0000
   1178 O         -15.6373   14.7493    2.7813 O.2   101  LIG         0.0000
   1179 O          -0.3751   11.0473    2.5188 O.2   102  LIG         0.0000
   1180 O           0.4975   10.5810    1.5353 O.2   102  LIG         0.0000
   1181 O          -7.8388    0.5600    2.1635 O.2   103  LIG         0.0000
   1182 O          -6.9108    1.1543    1.3082 O.2   103  LIG         0.0000
   1183 O          -1.8392    3.7273    2.3369 O.2   104  LIG         0.0000
   1184 O          -0.4632    3.6174    2.5531 O.2   104  LIG         0.0000
   1185 O         -13.9109   14.4003   -1.8844 O.2   105  LIG         0.0000
   1186 O         -13.8508   14.6372   -0.5080 O.2   105  LIG         0.0000
   1187 O          -4.4762   15.4825   -3.1007 O.2   106  LIG         0.0000
   1188 O          -5.4576   15.8510   -2.1765 O.2   106  LIG         0.0000
   1189 O          -1.5680   12.1387   -4.7800 O.2   107  LIG         0.0000
   1190 O          -2.2159   13.3301   -4.4326 O.2   107  LIG         0.0000
   1191 O         -15.2310   12.6545   -4.7373 O.2   108  LIG         0.0000
   1192 O         -15.8898   13.7764   -4.2247 O.2   108  LIG         0.0000
   1193 O          -1.0562    3.5878   -3.2091 O.2   109  LIG         0.0000
   1194 O          -2.4479    3.4776   -3.1171 O.2   109  LIG         0.0000
   1195 O          -1.1248    5.9205   -1.2020 O.2   110  LIG         0.0000
   1196 O          -1.6012    4.9154   -0.3628 O.2   110  LIG         0.0000
   1197 O          -0.2402    0.3726    1.5772 O.2   111  LIG         0.0000
   1198 O          -0.0544    0.6761    2.9255 O.2   111  LIG         0.0000
   1199 O         -10.4782    1.1758    0.7713 O.2   112  LIG         0.0000
   1200 O         -11.2265    1.3522    1.9361 O.2   112  LIG         0.0000
   1201 O         -11.3221   15.9560   -1.6357 O.2   113  LIG         0.0000
   1202 O         -11.4660   16.0524   -3.0232 O.2   113  LIG         0.0000
   1203 O          -7.2252   16.8413   -4.5581 O.2   114  LIG         0.0000
   1204 O          -8.5610   16.4572   -4.3892 O.2   114  LIG         0.0000
   1205 O          -9.7102    9.4203   -2.1452 O.2   115  LIG         0.0000
   1206 O          -8.5477   10.1734   -1.9624 O.2   115  LIG         0.0000
   1207 O          -7.0828    7.8762   -3.6311 O.2   116  LIG         0.0000
   1208 O          -8.2845    7.1723   -3.7547 O.2   116  LIG         0.0000
   1209 O          -3.1123   14.5979   -0.3208 O.2   117  LIG         0.0000
   1210 O          -2.6940   15.9271   -0.2012 O.2   117  LIG         0.0000
   1211 O           9.7268    6.9590    3.8767 O.2   118  LIG         0.0000
   1212 O           9.4949    7.1891    2.5169 O.2   118  LIG         0.0000
   1213 O           7.7536    9.4787    0.9889 O.2   119  LIG         0.0000
   1214 O           8.9805   10.0339    1.3607 O.2   119  LIG         0.0000
   1215 O           7.6154    9.4123   -5.3870 O.2   120  LIG         0.0000
   1216 O           8.7881   10.1443   -5.1700 O.2   120  LIG         0.0000
   1217 O           9.0746   10.6985    4.7389 O.2   121  LIG         0.0000
   1218 O          10.1757    9.9174    4.3794 O.2   121  LIG         0.0000
   1219 O           0.2082   14.8253   -1.4995 O.2   122  LIG         0.0000
   1220 O           0.2416   14.7171   -0.1067 O.2   122  LIG         0.0000
   1221 O          14.1859    0.7810    2.5906 O.2   123  LIG         0.0000
   1222 O          13.1207    1.6634    2.3606 O.2   123  LIG         0.0000
   1223 O           2.9483    1.3279    2.4775 O.2   124  LIG         0.0000
   1224 O           2.5948    2.6691    2.2986 O.2   124  LIG         0.0000
   1225 O           0.5993    8.2690   -1.5763 O.2   125  LIG         0.0000
   1226 O           1.4057    8.6987   -0.5166 O.2   125  LIG         0.0000
   1227 O           0.7027    2.3189   -0.6482 O.2   126  LIG         0.0000
   1228 O           0.8631    1.1587   -1.4149 O.2   126  LIG         0.0000
   1229 O           8.9669    7.1194   -0.6167 O.2   127  LIG         0.0000
   1230 O          10.1632    7.8367   -0.5335 O.2   127  LIG         0.0000
   1231 O           9.3095    0.6665   -1.4931 O.2   128  LIG         0.0000
   1232 O           8.0815    1.0078   -2.0518 O.2   128  LIG         0.0000
   1233 O          11.6551   15.5982    0.8890 O.2   129  LIG         0.0000
   1234 O          12.2844   15.5500    2.1340 O.2   129  LIG         0.0000
   1235 O          15.6351   12.1178   -1.6148 O.2   130  LIG         0.0000
   1236 O          15.6663   11.8839   -0.2371 O.2   130  LIG         0.0000
   1237 O          15.3155   14.9858    2.7433 O.2   131  LIG         0.0000
   1238 O          15.4882   13.6537    2.3847 O.2   131  LIG         0.0000
   1239 O          12.7979    1.6881   -0.9039 O.2   132  LIG         0.0000
   1240 O          13.9272    2.3563   -0.4181 O.2   132  LIG         0.0000
   1241 O           6.8086    7.6804    4.8760 O.2   133  LIG         0.0000
   1242 O           7.0177    8.6299    3.8714 O.2   133  LIG         0.0000
   1243 O           3.9290    1.1265   -0.5348 O.2   134  LIG         0.0000
   1244 O           4.1347    2.5000   -0.3626 O.2   134  LIG         0.0000
   1245 O           4.5553   15.6451    2.3462 O.2   135  LIG         0.0000
   1246 O           5.5694   15.4864    1.4040 O.2   135  LIG         0.0000
   1247 O          16.4363    7.8207    1.8190 O.2   136  LIG         0.0000
   1248 O          17.0495    6.5706    2.0368 O.2   136  LIG         0.0000
   1249 O           1.9771    5.1364    0.4316 O.2   137  LIG         0.0000
   1250 O           2.1686    5.0912   -0.9530 O.2   137  LIG         0.0000
   1251 O           3.5298    3.1500   -3.3457 O.2   138  LIG         0.0000
   1252 O           4.5526    2.2073   -3.5121 O.2   138  LIG         0.0000
   1253 O           1.5831   11.6954   -1.8274 O.2   139  LIG         0.0000
   1254 O           1.8988   12.0329   -0.5108 O.2   139  LIG         0.0000
   1255 O           2.1289   13.5018    2.2752 O.2   140  LIG         0.0000
   1256 O           1.6176   14.7431    2.6675 O.2   140  LIG         0.0000
   1257 O          16.8605   11.0723    2.6185 O.2   141  LIG         0.0000
   1258 O         -16.3954   10.4564    1.8185 O.2   141  LIG         0.0000
   1259 O           9.4820    0.5630    2.1332 O.2   142  LIG         0.0000
   1260 O          10.3995    1.1576    1.2666 O.2   142  LIG         0.0000
   1261 O          15.4166    3.7315    2.3561 O.2   143  LIG         0.0000
   1262 O          16.7782    3.6145    2.6373 O.2   143  LIG         0.0000
   1263 O           3.4203   14.3498   -1.9422 O.2   144  LIG         0.0000
   1264 O           3.4817   14.6052   -0.5686 O.2   144  LIG         0.0000
   1265 O          12.8429   15.4415   -3.1522 O.2   145  LIG         0.0000
   1266 O          11.8639   15.8327   -2.2332 O.2   145  LIG         0.0000
   1267 O          15.7255   12.0767   -4.8410 O.2   146  LIG         0.0000
   1268 O          15.1062   13.2830   -4.4929 O.2   146  LIG         0.0000
   1269 O           2.1012   12.6137   -4.7944 O.2   147  LIG         0.0000
   1270 O           1.3901   13.7105   -4.2967 O.2   147  LIG         0.0000
   1271 O          16.2742    3.5645   -3.2943 O.2   148  LIG         0.0000
   1272 O          14.8865    3.4331   -3.1728 O.2   148  LIG         0.0000
   1273 O          16.1157    5.8693   -1.2727 O.2   149  LIG         0.0000
   1274 O          15.6887    4.8860   -0.3818 O.2   149  LIG         0.0000
   1275 O          17.0748    0.2956    1.6220 O.2   150  LIG         0.0000
   1276 O          17.1491    0.6004    2.9816 O.2   150  LIG         0.0000
   1277 O           6.8512    1.1536    0.7365 O.2   151  LIG         0.0000
   1278 O           6.0773    1.3465    1.8819 O.2   151  LIG         0.0000
   1279 O           6.0214   15.9489   -1.6897 O.2   152  LIG         0.0000
   1280 O           5.8610   16.0268   -3.0767 O.2   152  LIG         0.0000
   1281 O          10.1006   16.7867   -4.6201 O.2   153  LIG         0.0000
   1282 O           8.7706   16.4264   -4.3797 O.2   153  LIG         0.0000
   1283 O           7.6134    9.3862   -2.2066 O.2   154  LIG         0.0000
   1284 O           8.7798   10.1347   -2.0265 O.2   154  LIG         0.0000
   1285 O          10.2476    7.8382   -3.6941 O.2   155  LIG         0.0000
   1286 O           9.0467    7.1336   -3.8178 O.2   155  LIG         0.0000
   1287 O          14.1461   14.5840   -0.3513 O.2   156  LIG         0.0000
   1288 O          14.4787   15.9395   -0.2391 O.2   156  LIG         0.0000
@<TRIPOS>BOND
     1     1     2    1
     2     1   107    1
     3     1   115    1
     4     2     3    1
     5     2   193    1
     6     3     4    1
     7     3    54    1
     8     4     5    1
     9     5     6    1
    10     5   209    1
    11     6     7    1
    12     7     8    1
    13     7   191    1
    14     8     9    1
    15     8   210    1
    16     9    10    1
    17     9    41    1
    18    10    11    1
    19    10   190    1
    20    11    12    1
    21    11    37    1
    22    12    13    1
    23    12    35    1
    24    13    14    1
    25    13    21    1
    26    14    15    1
    27    14    22    1
    28    15    16    1
    29    15    37    1
    30    16    17    1
    31    16    38    1
    32    17    18    1
    33    17    19    1
    34    18    51    1
    35    18   205    1
    36    19    20    1
    37    20    36    1
    38    20    37    1
    39    21    24    1
    40    21    96    1
    41    22    23    1
    42    22    95    1
    43    23    38    1
    44    23    90    1
    45    24    25    1
    46    24   101    1
    47    25    26    1
    48    25    35    1
    49    26    27    1
    50    26    34    1
    51    27    28    1
    52    27    39    1
    53    28    29    1
    54    28    47    1
    55    29    30    1
    56    29    33    1
    57    30    31    1
    58    30   157    1
    59    31    32    1
    60    31    46    1
    61    32    56    1
    62    32   116    1
    63    33    34    1
    64    33   135    1
    65    34   102    1
    66    35    41    1
    67    36   190    1
    68    38    48    1
    69    39    40    1
    70    39    41    1
    71    40    42    1
    72    40   210    1
    73    42    43    1
    74    42    47    1
    75    43    44    1
    76    43    55    1
    77    44    45    1
    78    44   105    1
    79    45    46    1
    80    45    74    1
    81    46    47    1
    82    48    49    1
    83    48    51    1
    84    49    50    1
    85    49    89    1
    86    50    53    1
    87    50    77    1
    88    51    52    1
    89    52    53    1
    90    53   114    1
    91    54    55    1
    92    54   106    1
    93    55   209    1
    94    56    57    1
    95    56    74    1
    96    57    58    1
    97    57   122    1
    98    58    59    1
    99    58    76    1
   100    59    60    1
   101    59   124    1
   102    60    61    1
   103    60    69    1
   104    61    62    1
   105    61   127    1
   106    62    63    1
   107    62    66    1
   108    63    64    1
   109    63    68    1
   110    64    65    1
   111    64    86    1
   112    65    67    1
   113    65    93    1
   114    66    67    1
   115    66   129    1
   116    67    71    1
   117    68    69    1
   118    68   111    1
   119    69    70    1
   120    70    76    1
   121    70   109    1
   122    71    72    1
   123    71   151    1
   124    72    73    1
   125    72    92    1
   126    73    99    1
   127    73   149    1
   128    74    75    1
   129    75    76    1
   130    75   103    1
   131    77    78    1
   132    77    85    1
   133    78    79    1
   134    78   112    1
   135    79    80    1
   136    79    87    1
   137    80    81    1
   138    80    82    1
   139    81   113    1
   140    81   194    1
   141    82    83    1
   142    82   110    1
   143    83    84    1
   144    83   108    1
   145    84   115    1
   146    84   194    1
   147    85    86    1
   148    85    88    1
   149    86    87    1
   150    87   111    1
   151    88    89    1
   152    88    93    1
   153    89    90    1
   154    90    91    1
   155    91    92    1
   156    91    94    1
   157    92    93    1
   158    94    95    1
   159    94    99    1
   160    95    96    1
   161    96    97    1
   162    97    98    1
   163    97   100    1
   164    98    99    1
   165    98   144    1
   166   100   101    1
   167   100   143    1
   168   101   102    1
   169   102   141    1
   170   103   104    1
   171   103   105    1
   172   104   108    1
   173   104   109    1
   174   105   106    1
   175   106   107    1
   176   107   108    1
   177   109   110    1
   178   110   111    1
   179   112   113    1
   180   112   114    1
   181   113   201    1
   182   116   117    1
   183   116   121    1
   184   117   118    1
   185   117   123    1
   186   118   119    1
   187   118   172    1
   188   119   120    1
   189   119   169    1
   190   120   121    1
   191   120   160    1
   192   121   157    1
   193   122   123    1
   194   122   125    1
   195   123   161    1
   196   124   125    1
   197   124   126    1
   198   125   211    1
   199   126   128    1
   200   126   215    1
   201   127   128    1
   202   127   130    1
   203   128   163    1
   204   129   130    1
   205   129   134    1
   206   130   131    1
   207   131   132    1
   208   131   168    1
   209   132   133    1
   210   133   134    1
   211   134   152    1
   212   135   136    1
   213   135   140    1
   214   136   137    1
   215   136   158    1
   216   137   138    1
   217   137   221    1
   218   138   139    1
   219   138   179    1
   220   139   140    1
   221   139   181    1
   222   140   141    1
   223   141   142    1
   224   142   187    1
   225   142   188    1
   226   143   145    1
   227   143   188    1
   228   144   145    1
   229   144   148    1
   230   145   146    1
   231   146   147    1
   232   146   218    1
   233   147   217    1
   234   148   150    1
   235   148   217    1
   236   149   150    1
   237   149   156    1
   238   150   174    1
   239   151   152    1
   240   151   156    1
   241   152   153    1
   242   153   154    1
   243   154   155    1
   244   155   156    1
   245   155   175    1
   246   157   158    1
   247   158   159    1
   248   159   160    1
   249   159   222    1
   250   160   223    1
   251   161   162    1
   252   161   213    1
   253   162   172    1
   254   163   164    1
   255   163   168    1
   256   164   165    1
   257   164   214    1
   258   165   166    1
   259   166   167    1
   260   167   168    1
   261   169   170    1
   262   169   224    1
   263   170   171    1
   264   170   173    1
   265   172   173    1
   266   174   175    1
   267   174   189    1
   268   175   176    1
   269   176   177    1
   270   177   178    1
   271   178   189    1
   272   179   180    1
   273   180   182    1
   274   181   182    1
   275   181   187    1
   276   182   183    1
   277   183   184    1
   278   183   185    1
   279   185   186    1
   280   186   187    1
   281   186   220    1
   282   188   219    1
   283   189   216    1
   284   190   191    1
   285   191   192    1
   286   192   195    1
   287   192   196    1
   288   192   197    1
   289   193   198    1
   290   193   199    1
   291   193   200    1
   292   201   202    1
   293   201   203    1
   294   201   204    1
   295   205   206    1
   296   205   207    1
   297   205   208    1
   298   209   210    1
   299   211   212    1
   300   211   213    1
   301   212   215    1
   302   214   215    1
   303   216   217    1
   304   218   219    1
   305   219   220    1
   306   221   222    1
   307   223   224    1
   308   225   200    3
   309   226   199    3
   310   227   202    3
   311   228   203    3
   312   229   198    3
   313   230   196    3
   314   231   197    3
   315   232   207    3
   316   233   208    3
   317   234   206    3
   318   235   195    3
   319   236   204    3
   320     4   237    1
   321     6   238    1
   322    19   239    1
   323    36   240    1
   324    52   241    1
   325   114   242    1
   326   115   243    1
   327   194   244    1
   328   245   246    1
   329   245   351    1
   330   245   359    1
   331   246   247    1
   332   246   437    1
   333   247   248    1
   334   247   298    1
   335   248   249    1
   336   249   250    1
   337   249   453    1
   338   250   251    1
   339   251   252    1
   340   251   435    1
   341   252   253    1
   342   252   454    1
   343   253   254    1
   344   253   285    1
   345   254   255    1
   346   254   434    1
   347   255   256    1
   348   255   281    1
   349   256   257    1
   350   256   279    1
   351   257   258    1
   352   257   265    1
   353   258   259    1
   354   258   266    1
   355   259   260    1
   356   259   281    1
   357   260   261    1
   358   260   282    1
   359   261   262    1
   360   261   263    1
   361   262   295    1
   362   262   449    1
   363   263   264    1
   364   264   280    1
   365   264   281    1
   366   265   268    1
   367   265   340    1
   368   266   267    1
   369   266   339    1
   370   267   282    1
   371   267   334    1
   372   268   269    1
   373   268   345    1
   374   269   270    1
   375   269   279    1
   376   270   271    1
   377   270   278    1
   378   271   272    1
   379   271   283    1
   380   272   273    1
   381   272   291    1
   382   273   274    1
   383   273   277    1
   384   274   275    1
   385   274   401    1
   386   275   276    1
   387   275   290    1
   388   276   300    1
   389   276   360    1
   390   277   278    1
   391   277   379    1
   392   278   346    1
   393   279   285    1
   394   280   434    1
   395   282   292    1
   396   283   284    1
   397   283   285    1
   398   284   286    1
   399   284   454    1
   400   286   287    1
   401   286   291    1
   402   287   288    1
   403   287   299    1
   404   288   289    1
   405   288   349    1
   406   289   290    1
   407   289   318    1
   408   290   291    1
   409   292   293    1
   410   292   295    1
   411   293   294    1
   412   293   333    1
   413   294   297    1
   414   294   321    1
   415   295   296    1
   416   296   297    1
   417   297   358    1
   418   298   299    1
   419   298   350    1
   420   299   453    1
   421   300   301    1
   422   300   318    1
   423   301   302    1
   424   301   366    1
   425   302   303    1
   426   302   320    1
   427   303   304    1
   428   303   368    1
   429   304   305    1
   430   304   313    1
   431   305   306    1
   432   305   371    1
   433   306   307    1
   434   306   310    1
   435   307   308    1
   436   307   312    1
   437   308   309    1
   438   308   330    1
   439   309   311    1
   440   309   337    1
   441   310   311    1
   442   310   373    1
   443   311   315    1
   444   312   313    1
   445   312   355    1
   446   313   314    1
   447   314   320    1
   448   314   353    1
   449   315   316    1
   450   315   395    1
   451   316   317    1
   452   316   336    1
   453   317   343    1
   454   317   393    1
   455   318   319    1
   456   319   320    1
   457   319   347    1
   458   321   322    1
   459   321   329    1
   460   322   323    1
   461   322   356    1
   462   323   324    1
   463   323   331    1
   464   324   325    1
   465   324   326    1
   466   325   357    1
   467   325   438    1
   468   326   327    1
   469   326   354    1
   470   327   328    1
   471   327   352    1
   472   328   359    1
   473   328   438    1
   474   329   330    1
   475   329   332    1
   476   330   331    1
   477   331   355    1
   478   332   333    1
   479   332   337    1
   480   333   334    1
   481   334   335    1
   482   335   336    1
   483   335   338    1
   484   336   337    1
   485   338   339    1
   486   338   343    1
   487   339   340    1
   488   340   341    1
   489   341   342    1
   490   341   344    1
   491   342   343    1
   492   342   388    1
   493   344   345    1
   494   344   387    1
   495   345   346    1
   496   346   385    1
   497   347   348    1
   498   347   349    1
   499   348   352    1
   500   348   353    1
   501   349   350    1
   502   350   351    1
   503   351   352    1
   504   353   354    1
   505   354   355    1
   506   356   357    1
   507   356   358    1
   508   357   445    1
   509   360   361    1
   510   360   365    1
   511   361   362    1
   512   361   367    1
   513   362   363    1
   514   362   416    1
   515   363   364    1
   516   363   413    1
   517   364   365    1
   518   364   404    1
   519   365   401    1
   520   366   367    1
   521   366   369    1
   522   367   405    1
   523   368   369    1
   524   368   370    1
   525   369   455    1
   526   370   372    1
   527   370   459    1
   528   371   372    1
   529   371   374    1
   530   372   407    1
   531   373   374    1
   532   373   378    1
   533   374   375    1
   534   375   376    1
   535   375   412    1
   536   376   377    1
   537   377   378    1
   538   378   396    1
   539   379   380    1
   540   379   384    1
   541   380   381    1
   542   380   402    1
   543   381   382    1
   544   381   465    1
   545   382   383    1
   546   382   423    1
   547   383   384    1
   548   383   425    1
   549   384   385    1
   550   385   386    1
   551   386   431    1
   552   386   432    1
   553   387   389    1
   554   387   432    1
   555   388   389    1
   556   388   392    1
   557   389   390    1
   558   390   391    1
   559   390   462    1
   560   391   461    1
   561   392   394    1
   562   392   461    1
   563   393   394    1
   564   393   400    1
   565   394   418    1
   566   395   396    1
   567   395   400    1
   568   396   397    1
   569   397   398    1
   570   398   399    1
   571   399   400    1
   572   399   419    1
   573   401   402    1
   574   402   403    1
   575   403   404    1
   576   403   466    1
   577   404   467    1
   578   405   406    1
   579   406   416    1
   580   407   408    1
   581   407   412    1
   582   408   409    1
   583   408   458    1
   584   409   410    1
   585   410   411    1
   586   411   412    1
   587   413   414    1
   588   413   468    1
   589   414   415    1
   590   414   417    1
   591   416   417    1
   592   418   419    1
   593   418   433    1
   594   419   420    1
   595   420   421    1
   596   421   422    1
   597   422   433    1
   598   423   424    1
   599   424   426    1
   600   425   426    1
   601   425   431    1
   602   426   427    1
   603   427   428    1
   604   427   429    1
   605   429   430    1
   606   430   431    1
   607   430   464    1
   608   432   463    1
   609   433   460    1
   610   434   435    1
   611   435   436    1
   612   436   439    1
   613   436   440    1
   614   436   441    1
   615   437   442    1
   616   437   443    1
   617   437   444    1
   618   445   446    1
   619   445   447    1
   620   445   448    1
   621   449   450    1
   622   449   451    1
   623   449   452    1
   624   453   454    1
   625   455   456    1
   626   455   457    1
   627   456   459    1
   628   458   459    1
   629   460   461    1
   630   462   463    1
   631   463   464    1
   632   465   466    1
   633   467   468    1
   634   469   444    3
   635   470   443    3
   636   471   446    3
   637   472   447    3
   638   473   442    3
   639   474   440    3
   640   475   441    3
   641   476   451    3
   642   477   452    3
   643   478   450    3
   644   479   439    3
   645   480   448    3
   646   248   481    1
   647   250   482    1
   648   263   483    1
   649   280   484    1
   650   296   485    1
   651   358   486    1
   652   359   487    1
   653   438   488    1
   654   410   171    1
   655   184   421    1
   656   179   398    1
   657   397   221    1
   658   489   490    1
   659   489   595    1
   660   489   603    1
   661   490   491    1
   662   490   681    1
   663   491   492    1
   664   491   542    1
   665   492   493    1
   666   493   494    1
   667   493   697    1
   668   494   495    1
   669   495   496    1
   670   495   679    1
   671   496   497    1
   672   496   698    1
   673   497   498    1
   674   497   529    1
   675   498   499    1
   676   498   678    1
   677   499   500    1
   678   499   525    1
   679   500   501    1
   680   500   523    1
   681   501   502    1
   682   501   509    1
   683   502   503    1
   684   502   510    1
   685   503   504    1
   686   503   525    1
   687   504   505    1
   688   504   526    1
   689   505   506    1
   690   505   507    1
   691   506   539    1
   692   506   693    1
   693   507   508    1
   694   508   524    1
   695   508   525    1
   696   509   512    1
   697   509   584    1
   698   510   511    1
   699   510   583    1
   700   511   526    1
   701   511   578    1
   702   512   513    1
   703   512   589    1
   704   513   514    1
   705   513   523    1
   706   514   515    1
   707   514   522    1
   708   515   516    1
   709   515   527    1
   710   516   517    1
   711   516   535    1
   712   517   518    1
   713   517   521    1
   714   518   519    1
   715   518   645    1
   716   519   520    1
   717   519   534    1
   718   520   544    1
   719   520   604    1
   720   521   522    1
   721   521   623    1
   722   522   590    1
   723   523   529    1
   724   524   678    1
   725   526   536    1
   726   527   528    1
   727   527   529    1
   728   528   530    1
   729   528   698    1
   730   530   531    1
   731   530   535    1
   732   531   532    1
   733   531   543    1
   734   532   533    1
   735   532   593    1
   736   533   534    1
   737   533   562    1
   738   534   535    1
   739   536   537    1
   740   536   539    1
   741   537   538    1
   742   537   577    1
   743   538   541    1
   744   538   565    1
   745   539   540    1
   746   540   541    1
   747   541   602    1
   748   542   543    1
   749   542   594    1
   750   543   697    1
   751   544   545    1
   752   544   562    1
   753   545   546    1
   754   545   610    1
   755   546   547    1
   756   546   564    1
   757   547   548    1
   758   547   612    1
   759   548   549    1
   760   548   557    1
   761   549   550    1
   762   549   615    1
   763   550   551    1
   764   550   554    1
   765   551   552    1
   766   551   556    1
   767   552   553    1
   768   552   574    1
   769   553   555    1
   770   553   581    1
   771   554   555    1
   772   554   617    1
   773   555   559    1
   774   556   557    1
   775   556   599    1
   776   557   558    1
   777   558   564    1
   778   558   597    1
   779   559   560    1
   780   559   639    1
   781   560   561    1
   782   560   580    1
   783   561   587    1
   784   561   637    1
   785   562   563    1
   786   563   564    1
   787   563   591    1
   788   565   566    1
   789   565   573    1
   790   566   567    1
   791   566   600    1
   792   567   568    1
   793   567   575    1
   794   568   569    1
   795   568   570    1
   796   569   601    1
   797   569   682    1
   798   570   571    1
   799   570   598    1
   800   571   572    1
   801   571   596    1
   802   572   603    1
   803   572   682    1
   804   573   574    1
   805   573   576    1
   806   574   575    1
   807   575   599    1
   808   576   577    1
   809   576   581    1
   810   577   578    1
   811   578   579    1
   812   579   580    1
   813   579   582    1
   814   580   581    1
   815   582   583    1
   816   582   587    1
   817   583   584    1
   818   584   585    1
   819   585   586    1
   820   585   588    1
   821   586   587    1
   822   586   632    1
   823   588   589    1
   824   588   631    1
   825   589   590    1
   826   590   629    1
   827   591   592    1
   828   591   593    1
   829   592   596    1
   830   592   597    1
   831   593   594    1
   832   594   595    1
   833   595   596    1
   834   597   598    1
   835   598   599    1
   836   600   601    1
   837   600   602    1
   838   601   689    1
   839   604   605    1
   840   604   609    1
   841   605   606    1
   842   605   611    1
   843   606   607    1
   844   606   660    1
   845   607   608    1
   846   607   657    1
   847   608   609    1
   848   608   648    1
   849   609   645    1
   850   610   611    1
   851   610   613    1
   852   611   649    1
   853   612   613    1
   854   612   614    1
   855   613   699    1
   856   614   616    1
   857   614   703    1
   858   615   616    1
   859   615   618    1
   860   616   651    1
   861   617   618    1
   862   617   622    1
   863   618   619    1
   864   619   620    1
   865   619   656    1
   866   620   621    1
   867   621   622    1
   868   622   640    1
   869   623   624    1
   870   623   628    1
   871   624   625    1
   872   624   646    1
   873   625   626    1
   874   625   709    1
   875   626   627    1
   876   626   667    1
   877   627   628    1
   878   627   669    1
   879   628   629    1
   880   629   630    1
   881   630   675    1
   882   630   676    1
   883   631   633    1
   884   631   676    1
   885   632   633    1
   886   632   636    1
   887   633   634    1
   888   634   635    1
   889   634   706    1
   890   635   705    1
   891   636   638    1
   892   636   705    1
   893   637   638    1
   894   637   644    1
   895   638   662    1
   896   639   640    1
   897   639   644    1
   898   640   641    1
   899   641   642    1
   900   642   643    1
   901   643   644    1
   902   643   663    1
   903   645   646    1
   904   646   647    1
   905   647   648    1
   906   647   710    1
   907   648   711    1
   908   649   650    1
   909   649   701    1
   910   650   660    1
   911   651   652    1
   912   651   656    1
   913   652   653    1
   914   652   702    1
   915   653   654    1
   916   654   655    1
   917   655   656    1
   918   657   658    1
   919   657   712    1
   920   658   659    1
   921   658   661    1
   922   660   661    1
   923   662   663    1
   924   662   677    1
   925   663   664    1
   926   664   665    1
   927   665   666    1
   928   666   677    1
   929   667   668    1
   930   668   670    1
   931   669   670    1
   932   669   675    1
   933   670   671    1
   934   671   672    1
   935   671   673    1
   936   673   674    1
   937   674   675    1
   938   674   708    1
   939   676   707    1
   940   677   704    1
   941   678   679    1
   942   679   680    1
   943   680   683    1
   944   680   684    1
   945   680   685    1
   946   681   686    1
   947   681   687    1
   948   681   688    1
   949   689   690    1
   950   689   691    1
   951   689   692    1
   952   693   694    1
   953   693   695    1
   954   693   696    1
   955   697   698    1
   956   699   700    1
   957   699   701    1
   958   700   703    1
   959   702   703    1
   960   704   705    1
   961   706   707    1
   962   707   708    1
   963   709   710    1
   964   711   712    1
   965   713   688    3
   966   714   687    3
   967   715   690    3
   968   716   691    3
   969   717   686    3
   970   718   684    3
   971   719   685    3
   972   720   695    3
   973   721   696    3
   974   722   694    3
   975   723   683    3
   976   724   692    3
   977   492   725    1
   978   494   726    1
   979   507   727    1
   980   524   728    1
   981   540   729    1
   982   602   730    1
   983   603   731    1
   984   682   732    1
   985   415   672    1
   986   406   708    1
   987   409   666    1
   988   458   704    1
   989   733   734    1
   990   733   839    1
   991   733   847    1
   992   734   735    1
   993   734   925    1
   994   735   736    1
   995   735   786    1
   996   736   737    1
   997   737   738    1
   998   737   941    1
   999   738   739    1
  1000   739   740    1
  1001   739   923    1
  1002   740   741    1
  1003   740   942    1
  1004   741   742    1
  1005   741   773    1
  1006   742   743    1
  1007   742   922    1
  1008   743   744    1
  1009   743   769    1
  1010   744   745    1
  1011   744   767    1
  1012   745   746    1
  1013   745   753    1
  1014   746   747    1
  1015   746   754    1
  1016   747   748    1
  1017   747   769    1
  1018   748   749    1
  1019   748   770    1
  1020   749   750    1
  1021   749   751    1
  1022   750   783    1
  1023   750   937    1
  1024   751   752    1
  1025   752   768    1
  1026   752   769    1
  1027   753   756    1
  1028   753   828    1
  1029   754   755    1
  1030   754   827    1
  1031   755   770    1
  1032   755   822    1
  1033   756   757    1
  1034   756   833    1
  1035   757   758    1
  1036   757   767    1
  1037   758   759    1
  1038   758   766    1
  1039   759   760    1
  1040   759   771    1
  1041   760   761    1
  1042   760   779    1
  1043   761   762    1
  1044   761   765    1
  1045   762   763    1
  1046   762   889    1
  1047   763   764    1
  1048   763   778    1
  1049   764   788    1
  1050   764   848    1
  1051   765   766    1
  1052   765   867    1
  1053   766   834    1
  1054   767   773    1
  1055   768   922    1
  1056   770   780    1
  1057   771   772    1
  1058   771   773    1
  1059   772   774    1
  1060   772   942    1
  1061   774   775    1
  1062   774   779    1
  1063   775   776    1
  1064   775   787    1
  1065   776   777    1
  1066   776   837    1
  1067   777   778    1
  1068   777   806    1
  1069   778   779    1
  1070   780   781    1
  1071   780   783    1
  1072   781   782    1
  1073   781   821    1
  1074   782   785    1
  1075   782   809    1
  1076   783   784    1
  1077   784   785    1
  1078   785   846    1
  1079   786   787    1
  1080   786   838    1
  1081   787   941    1
  1082   788   789    1
  1083   788   806    1
  1084   789   790    1
  1085   789   854    1
  1086   790   791    1
  1087   790   808    1
  1088   791   792    1
  1089   791   856    1
  1090   792   793    1
  1091   792   801    1
  1092   793   794    1
  1093   793   859    1
  1094   794   795    1
  1095   794   798    1
  1096   795   796    1
  1097   795   800    1
  1098   796   797    1
  1099   796   818    1
  1100   797   799    1
  1101   797   825    1
  1102   798   799    1
  1103   798   861    1
  1104   799   803    1
  1105   800   801    1
  1106   800   843    1
  1107   801   802    1
  1108   802   808    1
  1109   802   841    1
  1110   803   804    1
  1111   803   883    1
  1112   804   805    1
  1113   804   824    1
  1114   805   831    1
  1115   805   881    1
  1116   806   807    1
  1117   807   808    1
  1118   807   835    1
  1119   809   810    1
  1120   809   817    1
  1121   810   811    1
  1122   810   844    1
  1123   811   812    1
  1124   811   819    1
  1125   812   813    1
  1126   812   814    1
  1127   813   845    1
  1128   813   926    1
  1129   814   815    1
  1130   814   842    1
  1131   815   816    1
  1132   815   840    1
  1133   816   847    1
  1134   816   926    1
  1135   817   818    1
  1136   817   820    1
  1137   818   819    1
  1138   819   843    1
  1139   820   821    1
  1140   820   825    1
  1141   821   822    1
  1142   822   823    1
  1143   823   824    1
  1144   823   826    1
  1145   824   825    1
  1146   826   827    1
  1147   826   831    1
  1148   827   828    1
  1149   828   829    1
  1150   829   830    1
  1151   829   832    1
  1152   830   831    1
  1153   830   876    1
  1154   832   833    1
  1155   832   875    1
  1156   833   834    1
  1157   834   873    1
  1158   835   836    1
  1159   835   837    1
  1160   836   840    1
  1161   836   841    1
  1162   837   838    1
  1163   838   839    1
  1164   839   840    1
  1165   841   842    1
  1166   842   843    1
  1167   844   845    1
  1168   844   846    1
  1169   845   933    1
  1170   848   849    1
  1171   848   853    1
  1172   849   850    1
  1173   849   855    1
  1174   850   851    1
  1175   850   904    1
  1176   851   852    1
  1177   851   901    1
  1178   852   853    1
  1179   852   892    1
  1180   853   889    1
  1181   854   855    1
  1182   854   857    1
  1183   855   893    1
  1184   856   857    1
  1185   856   858    1
  1186   857   943    1
  1187   858   860    1
  1188   858   947    1
  1189   859   860    1
  1190   859   862    1
  1191   860   895    1
  1192   861   862    1
  1193   861   866    1
  1194   862   863    1
  1195   863   864    1
  1196   863   900    1
  1197   864   865    1
  1198   865   866    1
  1199   866   884    1
  1200   867   868    1
  1201   867   872    1
  1202   868   869    1
  1203   868   890    1
  1204   869   870    1
  1205   869   953    1
  1206   870   871    1
  1207   870   911    1
  1208   871   872    1
  1209   871   913    1
  1210   872   873    1
  1211   873   874    1
  1212   874   919    1
  1213   874   920    1
  1214   875   877    1
  1215   875   920    1
  1216   876   877    1
  1217   876   880    1
  1218   877   878    1
  1219   878   879    1
  1220   878   950    1
  1221   879   949    1
  1222   880   882    1
  1223   880   949    1
  1224   881   882    1
  1225   881   888    1
  1226   882   906    1
  1227   883   884    1
  1228   883   888    1
  1229   884   885    1
  1230   885   886    1
  1231   886   887    1
  1232   887   888    1
  1233   887   907    1
  1234   889   890    1
  1235   890   891    1
  1236   891   892    1
  1237   891   954    1
  1238   892   955    1
  1239   893   894    1
  1240   893   945    1
  1241   894   904    1
  1242   895   896    1
  1243   895   900    1
  1244   896   897    1
  1245   896   946    1
  1246   897   898    1
  1247   898   899    1
  1248   899   900    1
  1249   901   902    1
  1250   901   956    1
  1251   902   903    1
  1252   902   905    1
  1253   904   905    1
  1254   906   907    1
  1255   906   921    1
  1256   907   908    1
  1257   908   909    1
  1258   909   910    1
  1259   910   921    1
  1260   911   912    1
  1261   912   914    1
  1262   913   914    1
  1263   913   919    1
  1264   914   915    1
  1265   915   916    1
  1266   915   917    1
  1267   917   918    1
  1268   918   919    1
  1269   918   952    1
  1270   920   951    1
  1271   921   948    1
  1272   922   923    1
  1273   923   924    1
  1274   924   927    1
  1275   924   928    1
  1276   924   929    1
  1277   925   930    1
  1278   925   931    1
  1279   925   932    1
  1280   933   934    1
  1281   933   935    1
  1282   933   936    1
  1283   937   938    1
  1284   937   939    1
  1285   937   940    1
  1286   941   942    1
  1287   943   944    1
  1288   943   945    1
  1289   944   947    1
  1290   946   947    1
  1291   948   949    1
  1292   950   951    1
  1293   951   952    1
  1294   953   954    1
  1295   955   956    1
  1296   957   932    3
  1297   958   931    3
  1298   959   934    3
  1299   960   935    3
  1300   961   930    3
  1301   962   928    3
  1302   963   929    3
  1303   964   939    3
  1304   965   940    3
  1305   966   938    3
  1306   967   927    3
  1307   968   936    3
  1308   736   969    1
  1309   738   970    1
  1310   751   971    1
  1311   768   972    1
  1312   784   973    1
  1313   846   974    1
  1314   847   975    1
  1315   926   976    1
  1316   162   952    1
  1317   173   917    1
  1318   171   916    1
  1319   664   912    1
  1320   911   642    1
  1321   954   621    1
  1322   620   955    1
  1323   956   655    1
  1324   213   950    1
  1325   224   411    1
  1326   376   223    1
  1327   417   673    1
  1328   910   165    1
  1329   948   214    1
  1330   879   212    1
  1331   635   456    1
  1332   706   457    1
  1333   916   665    1
  1334   457   405    1
  1335   377   222    1
  1336   180   420    1
  1337   953   641    1
  1338   903   654    1
  1339   176   424    1
  1340   154   423    1
  1341   153   465    1
  1342   133   466    1
  1343   467   132    1
  1344   167   468    1
  1345   415   166    1
  1346   909   672    1
  1347   668   908    1
  1348   667   886    1
  1349   885   709    1
  1350   710   865    1
  1351   864   711    1
  1352   712   899    1
  1353   216   946    1
  1354   147   944    1
  1355   218   945    1
  1356   220   894    1
  1357   185   905    1
  1358   184   903    1
  1359   422   653    1
  1360   460   702    1
  1361   391   700    1
  1362   462   701    1
  1363   464   650    1
  1364   429   661    1
  1365   428   659    1
  1366   178   897    1
  1367   177   428    1
  1368   659   898    1
  1369   977   978    2
  1370   979   980    2
  1371   981   982    2
  1372   983   984    2
  1373   985   986    2
  1374   987   988    2
  1375   989   990    2
  1376   991   992    2
  1377   993   994    2
  1378   995   996    2
  1379   997   998    2
  1380   999  1000    2
  1381  1001  1002    2
  1382  1003  1004    2
  1383  1005  1006    2
  1384  1007  1008    2
  1385  1009  1010    2
  1386  1011  1012    2
  1387  1013  1014    2
  1388  1015  1016    2
  1389  1017  1018    2
  1390  1019  1020    2
  1391  1021  1022    2
  1392  1023  1024    2
  1393  1025  1026    2
  1394  1027  1028    2
  1395  1029  1030    2
  1396  1032  1031    2
  1397  1033  1034    2
  1398  1035  1036    2
  1399  1037  1038    2
  1400  1039  1040    2
  1401  1041  1042    2
  1402  1043  1044    2
  1403  1045  1046    2
  1404  1047  1048    2
  1405  1049  1050    2
  1406  1051  1052    2
  1407  1053  1054    2
  1408  1055  1056    2
  1409  1057  1058    2
  1410  1059  1060    2
  1411  1061  1062    2
  1412  1063  1064    2
  1413  1065  1066    2
  1414  1067  1068    2
  1415  1069  1070    2
  1416  1071  1072    2
  1417  1073  1074    2
  1418  1075  1076    2
  1419  1077  1078    2
  1420  1079  1080    2
  1421  1081  1082    2
  1422  1083  1084    2
  1423  1085  1086    2
  1424  1087  1088    2
  1425  1089  1090    2
  1426  1091  1092    2
  1427  1093  1094    2
  1428  1095  1096    2
  1429  1097  1098    2
  1430  1099  1100    2
  1431  1101  1102    2
  1432  1103  1104    2
  1433  1105  1106    2
  1434  1107  1108    2
  1435  1110  1109    2
  1436  1111  1112    2
  1437  1113  1114    2
  1438  1115  1116    2
  1439  1117  1118    2
  1440  1119  1120    2
  1441  1121  1122    2
  1442  1123  1124    2
  1443  1125  1126    2
  1444  1127  1128    2
  1445  1129  1130    2
  1446  1131  1132    2
  1447  1133  1134    2
  1448  1135  1136    2
  1449  1137  1138    2
  1450  1139  1140    2
  1451  1141  1142    2
  1452  1143  1144    2
  1453  1145  1146    2
  1454  1147  1148    2
  1455  1149  1150    2
  1456  1151  1152    2
  1457  1153  1154    2
  1458  1155  1156    2
  1459  1157  1158    2
  1460  1159  1160    2
  1461  1161  1162    2
  1462  1163  1164    2
  1463  1165  1166    2
  1464  1167  1168    2
  1465  1169  1170    2
  1466  1171  1172    2
  1467  1173  1174    2
  1468  1175  1176    2
  1469  1177  1178    2
  1470  1179  1180    2
  1471  1181  1182    2
  1472  1183  1184    2
  1473  1185  1186    2
  1474  1188  1187    2
  1475  1189  1190    2
  1476  1191  1192    2
  1477  1193  1194    2
  1478  1195  1196    2
  1479  1197  1198    2
  1480  1199  1200    2
  1481  1201  1202    2
  1482  1203  1204    2
  1483  1205  1206    2
  1484  1207  1208    2
  1485  1209  1210    2
  1486  1211  1212    2
  1487  1213  1214    2
  1488  1215  1216    2
  1489  1217  1218    2
  1490  1219  1220    2
  1491  1221  1222    2
  1492  1223  1224    2
  1493  1225  1226    2
  1494  1227  1228    2
  1495  1229  1230    2
  1496  1231  1232    2
  1497  1233  1234    2
  1498  1235  1236    2
  1499  1237  1238    2
  1500  1239  1240    2
  1501  1241  1242    2
  1502  1243  1244    2
  1503  1245  1246    2
  1504  1247  1248    2
  1505  1249  1250    2
  1506  1251  1252    2
  1507  1253  1254    2
  1508  1255  1256    2
  1509  1257  1258    2
  1510  1259  1260    2
  1511  1261  1262    2
  1512  1263  1264    2
  1513  1266  1265    2
  1514  1267  1268    2
  1515  1269  1270    2
  1516  1271  1272    2
  1517  1273  1274    2
  1518  1275  1276    2
  1519  1277  1278    2
  1520  1279  1280    2
  1521  1281  1282    2
  1522  1283  1284    2
  1523  1285  1286    2
  1524  1287  1288    2

